1ia1
 OpenBabel04261915443D

 32 34  0  0  0  0  0  0  0  0999 V2000
    0.2057    0.7284   -0.2149 C   0  0  0  0  0  0  0  0  0  0  0  0
    0.4577   -0.6507   -0.0324 C   0  0  0  0  0  0  0  0  0  0  0  0
    1.8270   -0.9775    0.1685 C   0  0  0  0  0  0  0  0  0  0  0  0
    2.8228   -0.0730    0.1484 N   0  0  0  0  0  0  0  0  0  0  0  0
    2.4791    1.1922   -0.0694 C   0  0  0  0  0  0  0  0  0  0  0  0
    1.2288    1.5950   -0.2332 N   0  3  0  0  0  0  0  0  0  0  0  0
    3.4778    2.1482   -0.0946 N   0  0  0  0  0  0  0  0  0  0  0  0
    2.2787   -2.2763    0.3160 N   0  0  0  0  0  0  0  0  0  0  0  0
   -0.6824   -1.5211   -0.0580 C   0  0  0  0  0  0  0  0  0  0  0  0
   -1.9792   -0.9951   -0.2077 C   0  0  0  0  0  0  0  0  0  0  0  0
   -2.1872    0.3700   -0.3651 C   0  0  0  0  0  0  0  0  0  0  0  0
   -1.0972    1.2303   -0.3757 C   0  0  0  0  0  0  0  0  0  0  0  0
   -0.5926   -3.3079    0.1263 S   0  0  0  0  0  0  0  0  0  0  0  0
   -0.5697   -3.7947   -1.5929 C   0  0  0  0  0  0  0  0  0  0  0  0
    0.6460   -3.9586   -2.2655 C   0  0  0  0  0  0  0  0  0  0  0  0
    0.6645   -4.3368   -3.6091 C   0  0  0  0  0  0  0  0  0  0  0  0
   -0.5321   -4.5609   -4.2861 C   0  0  0  0  0  0  0  0  0  0  0  0
   -1.7473   -4.4140   -3.6192 C   0  0  0  0  0  0  0  0  0  0  0  0
   -1.7669   -4.0356   -2.2747 C   0  0  0  0  0  0  0  0  0  0  0  0
    1.0460    2.5524   -0.3716 H   0  0  0  0  0  0  0  0  0  0  0  0
    4.4179    1.8812    0.0242 H   0  0  0  0  0  0  0  0  0  0  0  0
    3.2487    3.0959   -0.2313 H   0  0  0  0  0  0  0  0  0  0  0  0
    1.6354   -3.0210    0.3437 H   0  0  0  0  0  0  0  0  0  0  0  0
    3.2435   -2.4561    0.3933 H   0  0  0  0  0  0  0  0  0  0  0  0
   -2.7896   -1.6340   -0.2005 H   0  0  0  0  0  0  0  0  0  0  0  0
   -3.1440    0.7413   -0.4732 H   0  0  0  0  0  0  0  0  0  0  0  0
   -1.2447    2.2438   -0.5024 H   0  0  0  0  0  0  0  0  0  0  0  0
    1.5345   -3.7989   -1.7653 H   0  0  0  0  0  0  0  0  0  0  0  0
    1.5647   -4.4504   -4.1008 H   0  0  0  0  0  0  0  0  0  0  0  0
   -0.5189   -4.8355   -5.2808 H   0  0  0  0  0  0  0  0  0  0  0  0
   -2.6336   -4.5850   -4.1194 H   0  0  0  0  0  0  0  0  0  0  0  0
   -2.6682   -3.9334   -1.7826 H   0  0  0  0  0  0  0  0  0  0  0  0
  1  6  2  0  0  0  0
  1 12  1  0  0  0  0
  1  2  1  0  0  0  0
  2  9  1  0  0  0  0
  2  3  2  0  0  0  0
  3  4  1  0  0  0  0
  3  8  1  0  0  0  0
  4  5  2  0  0  0  0
  5  6  1  0  0  0  0
  5  7  1  0  0  0  0
  6 20  1  0  0  0  0
  7 21  1  0  0  0  0
  7 22  1  0  0  0  0
  8 23  1  0  0  0  0
  8 24  1  0  0  0  0
  9 10  2  0  0  0  0
  9 13  1  0  0  0  0
 10 11  1  0  0  0  0
 10 25  1  0  0  0  0
 11 12  2  0  0  0  0
 11 26  1  0  0  0  0
 12 27  1  0  0  0  0
 13 14  1  0  0  0  0
 14 15  2  0  0  0  0
 14 19  1  0  0  0  0
 15 16  1  0  0  0  0
 15 28  1  0  0  0  0
 16 17  2  0  0  0  0
 16 29  1  0  0  0  0
 17 18  1  0  0  0  0
 17 30  1  0  0  0  0
 18 19  2  0  0  0  0
 18 31  1  0  0  0  0
 19 32  1  0  0  0  0
M  CHG  1   6   1
M  END
$$$$
