omegacsd_AOPCHY
 OpenBabel05031900133D

 51 53  0  0  0  0  0  0  0  0999 V2000
   21.6950    7.6134  -27.4360 C   0  0  0  0  0  0  0  0  0  0  0  0
   20.8139    8.5284  -27.9959 C   0  0  0  0  0  0  0  0  0  0  0  0
   20.0107    9.3057  -27.1804 C   0  0  0  0  0  0  0  0  0  0  0  0
   20.0918    9.1709  -25.8082 C   0  0  0  0  0  0  0  0  0  0  0  0
   20.9689    8.2502  -25.2503 C   0  0  0  0  0  0  0  0  0  0  0  0
   21.7905    7.4701  -26.0561 C   0  0  0  0  0  0  0  0  0  0  0  0
   22.7609    6.5212  -25.4649 C   0  0  0  0  0  0  0  0  0  0  0  0
   22.4166    5.2189  -25.2875 C   0  0  0  0  0  0  0  0  0  0  0  0
   21.0902    4.6241  -25.6911 C   0  0  0  0  0  0  0  0  0  0  0  0
   21.2825    3.4698  -26.6586 C   0  0  0  0  0  0  0  0  0  0  0  0
   22.2088    2.4106  -26.0980 C   0  0  0  0  0  0  0  0  0  0  0  0
   23.5205    3.0005  -25.6237 C   0  0  0  0  0  0  0  0  0  0  0  0
   23.3166    4.1720  -24.6798 C   0  0  0  0  0  0  0  0  0  0  0  0
   24.0966    7.0015  -25.0447 C   0  0  0  0  0  0  0  0  0  0  0  0
   24.2909    7.5141  -23.7674 C   0  0  0  0  0  0  0  0  0  0  0  0
   25.5252    8.0191  -23.3828 C   0  0  0  0  0  0  0  0  0  0  0  0
   26.5848    8.0008  -24.2676 C   0  0  0  0  0  0  0  0  0  0  0  0
   26.4135    7.4814  -25.5402 C   0  0  0  0  0  0  0  0  0  0  0  0
   25.1740    6.9863  -25.9254 C   0  0  0  0  0  0  0  0  0  0  0  0
   27.8167    8.5970  -23.9785 O   0  0  0  0  0  0  0  0  0  0  0  0
   27.8126    9.9396  -23.6018 C   0  0  0  0  0  0  0  0  0  0  0  0
   26.8593   10.6084  -23.2291 O   0  0  0  0  0  0  0  0  0  0  0  0
   29.2106   10.4688  -23.7082 C   0  0  0  0  0  0  0  0  0  0  0  0
   19.2272   10.2782  -27.8182 O   0  0  0  0  0  0  0  0  0  0  0  0
   18.0219   10.6975  -27.2636 C   0  0  0  0  0  0  0  0  0  0  0  0
   17.5441   10.3658  -26.1886 O   0  0  0  0  0  0  0  0  0  0  0  0
   17.3417   11.6209  -28.2206 C   0  0  0  0  0  0  0  0  0  0  0  0
   22.3123    7.0088  -28.0788 H   0  0  0  0  0  0  0  0  0  0  0  0
   20.7575    8.6328  -29.0659 H   0  0  0  0  0  0  0  0  0  0  0  0
   19.4808    9.7806  -25.1649 H   0  0  0  0  0  0  0  0  0  0  0  0
   21.0142    8.1433  -24.1791 H   0  0  0  0  0  0  0  0  0  0  0  0
   20.4599    5.3774  -26.1551 H   0  0  0  0  0  0  0  0  0  0  0  0
   20.5774    4.2510  -24.8014 H   0  0  0  0  0  0  0  0  0  0  0  0
   21.7050    3.8525  -27.5882 H   0  0  0  0  0  0  0  0  0  0  0  0
   20.3144    3.0134  -26.8672 H   0  0  0  0  0  0  0  0  0  0  0  0
   22.4035    1.6554  -26.8612 H   0  0  0  0  0  0  0  0  0  0  0  0
   21.7166    1.9384  -25.2475 H   0  0  0  0  0  0  0  0  0  0  0  0
   24.0878    3.3415  -26.4906 H   0  0  0  0  0  0  0  0  0  0  0  0
   24.0855    2.2234  -25.1075 H   0  0  0  0  0  0  0  0  0  0  0  0
   22.8681    3.8020  -23.7535 H   0  0  0  0  0  0  0  0  0  0  0  0
   24.2846    4.6029  -24.4431 H   0  0  0  0  0  0  0  0  0  0  0  0
   23.4736    7.5216  -23.0660 H   0  0  0  0  0  0  0  0  0  0  0  0
   25.6539    8.4260  -22.3951 H   0  0  0  0  0  0  0  0  0  0  0  0
   27.2340    7.4776  -26.2375 H   0  0  0  0  0  0  0  0  0  0  0  0
   25.0461    6.5861  -26.9176 H   0  0  0  0  0  0  0  0  0  0  0  0
   29.8797    9.6848  -24.0576 H   0  0  0  0  0  0  0  0  0  0  0  0
   29.5526   10.8138  -22.7381 H   0  0  0  0  0  0  0  0  0  0  0  0
   29.2424   11.2927  -24.4163 H   0  0  0  0  0  0  0  0  0  0  0  0
   17.9620   11.7687  -29.1015 H   0  0  0  0  0  0  0  0  0  0  0  0
   17.1669   12.5825  -27.7493 H   0  0  0  0  0  0  0  0  0  0  0  0
   16.3928   11.1920  -28.5301 H   0  0  0  0  0  0  0  0  0  0  0  0
  1  6  2  0  0  0  0
  1  2  1  0  0  0  0
  1 28  1  0  0  0  0
  2  3  2  0  0  0  0
  2 29  1  0  0  0  0
  3  4  1  0  0  0  0
  3 24  1  0  0  0  0
  4  5  2  0  0  0  0
  4 30  1  0  0  0  0
  5  6  1  0  0  0  0
  5 31  1  0  0  0  0
  6  7  1  0  0  0  0
  7 14  1  0  0  0  0
  7  8  2  0  0  0  0
  8 13  1  0  0  0  0
  8  9  1  0  0  0  0
  9 10  1  0  0  0  0
  9 32  1  0  0  0  0
  9 33  1  0  0  0  0
 10 11  1  0  0  0  0
 10 34  1  0  0  0  0
 10 35  1  0  0  0  0
 11 12  1  0  0  0  0
 11 36  1  0  0  0  0
 11 37  1  0  0  0  0
 12 13  1  0  0  0  0
 12 38  1  0  0  0  0
 12 39  1  0  0  0  0
 13 40  1  0  0  0  0
 13 41  1  0  0  0  0
 14 15  2  0  0  0  0
 14 19  1  0  0  0  0
 15 16  1  0  0  0  0
 15 42  1  0  0  0  0
 16 17  2  0  0  0  0
 16 43  1  0  0  0  0
 17 18  1  0  0  0  0
 17 20  1  0  0  0  0
 18 19  2  0  0  0  0
 18 44  1  0  0  0  0
 19 45  1  0  0  0  0
 20 21  1  0  0  0  0
 21 23  1  0  0  0  0
 21 22  2  0  0  0  0
 23 46  1  0  0  0  0
 23 47  1  0  0  0  0
 23 48  1  0  0  0  0
 24 25  1  0  0  0  0
 25 27  1  0  0  0  0
 25 26  2  0  0  0  0
 27 49  1  0  0  0  0
 27 50  1  0  0  0  0
 27 51  1  0  0  0  0
M  END
$$$$
