omegacsd_AOPCHY
 OpenBabel05071902273D

 51 53  0  0  0  0  0  0  0  0999 V2000
   40.5491  -28.1532   14.8744 C   0  0  0  0  0  0  0  0  0  0  0  0
   41.5517  -27.8723   13.9560 C   0  0  0  0  0  0  0  0  0  0  0  0
   42.2494  -28.9034   13.3540 C   0  0  0  0  0  0  0  0  0  0  0  0
   41.9451  -30.2162   13.6616 C   0  0  0  0  0  0  0  0  0  0  0  0
   40.9425  -30.4942   14.5891 C   0  0  0  0  0  0  0  0  0  0  0  0
   40.2259  -29.4667   15.1957 C   0  0  0  0  0  0  0  0  0  0  0  0
   39.1272  -29.7576   16.1438 C   0  0  0  0  0  0  0  0  0  0  0  0
   37.8350  -29.6936   15.7248 C   0  0  0  0  0  0  0  0  0  0  0  0
   37.4096  -29.3820   14.3110 C   0  0  0  0  0  0  0  0  0  0  0  0
   36.5625  -30.5032   13.7360 C   0  0  0  0  0  0  0  0  0  0  0  0
   35.3651  -30.8124   14.6107 C   0  0  0  0  0  0  0  0  0  0  0  0
   35.7661  -31.0614   16.0500 C   0  0  0  0  0  0  0  0  0  0  0  0
   36.6366  -29.9480   16.6053 C   0  0  0  0  0  0  0  0  0  0  0  0
   39.4361  -30.0857   17.5534 C   0  0  0  0  0  0  0  0  0  0  0  0
   39.4315  -31.4065   17.9892 C   0  0  0  0  0  0  0  0  0  0  0  0
   39.6659  -31.7177   19.3245 C   0  0  0  0  0  0  0  0  0  0  0  0
   39.9329  -30.7072   20.2284 C   0  0  0  0  0  0  0  0  0  0  0  0
   39.9453  -29.3888   19.8113 C   0  0  0  0  0  0  0  0  0  0  0  0
   39.7039  -29.0812   18.4779 C   0  0  0  0  0  0  0  0  0  0  0  0
   40.0529  -30.9533   21.6003 O   0  0  0  0  0  0  0  0  0  0  0  0
   41.2327  -31.5254   22.0645 C   0  0  0  0  0  0  0  0  0  0  0  0
   42.0942  -32.0846   21.4029 O   0  0  0  0  0  0  0  0  0  0  0  0
   41.3006  -31.3462   23.5494 C   0  0  0  0  0  0  0  0  0  0  0  0
   43.1650  -28.5450   12.3533 O   0  0  0  0  0  0  0  0  0  0  0  0
   44.5074  -28.8973   12.4691 C   0  0  0  0  0  0  0  0  0  0  0  0
   45.0558  -29.4104   13.4325 O   0  0  0  0  0  0  0  0  0  0  0  0
   45.2217  -28.4906   11.2189 C   0  0  0  0  0  0  0  0  0  0  0  0
   40.0144  -27.3415   15.3409 H   0  0  0  0  0  0  0  0  0  0  0  0
   41.7850  -26.8501   13.7103 H   0  0  0  0  0  0  0  0  0  0  0  0
   42.4746  -31.0252   13.1891 H   0  0  0  0  0  0  0  0  0  0  0  0
   40.7168  -31.5198   14.8371 H   0  0  0  0  0  0  0  0  0  0  0  0
   38.2772  -29.2304   13.6743 H   0  0  0  0  0  0  0  0  0  0  0  0
   36.8193  -28.4615   14.3068 H   0  0  0  0  0  0  0  0  0  0  0  0
   37.1757  -31.4011   13.6448 H   0  0  0  0  0  0  0  0  0  0  0  0
   36.2074  -30.2122   12.7460 H   0  0  0  0  0  0  0  0  0  0  0  0
   34.8442  -31.6889   14.2201 H   0  0  0  0  0  0  0  0  0  0  0  0
   34.6886  -29.9569   14.5845 H   0  0  0  0  0  0  0  0  0  0  0  0
   36.3175  -32.0016   16.1053 H   0  0  0  0  0  0  0  0  0  0  0  0
   34.8613  -31.1407   16.6552 H   0  0  0  0  0  0  0  0  0  0  0  0
   36.0372  -29.0354   16.6752 H   0  0  0  0  0  0  0  0  0  0  0  0
   36.9567  -30.2218   17.6063 H   0  0  0  0  0  0  0  0  0  0  0  0
   39.2381  -32.1988   17.2832 H   0  0  0  0  0  0  0  0  0  0  0  0
   39.6419  -32.7446   19.6451 H   0  0  0  0  0  0  0  0  0  0  0  0
   40.1394  -28.6011   20.5198 H   0  0  0  0  0  0  0  0  0  0  0  0
   39.7204  -28.0509   18.1599 H   0  0  0  0  0  0  0  0  0  0  0  0
   40.4142  -30.8209   23.9026 H   0  0  0  0  0  0  0  0  0  0  0  0
   42.1782  -30.7588   23.8099 H   0  0  0  0  0  0  0  0  0  0  0  0
   41.3533  -32.3130   24.0404 H   0  0  0  0  0  0  0  0  0  0  0  0
   44.5179  -28.0547   10.5115 H   0  0  0  0  0  0  0  0  0  0  0  0
   45.6853  -29.3591   10.7594 H   0  0  0  0  0  0  0  0  0  0  0  0
   45.9849  -27.7525   11.4510 H   0  0  0  0  0  0  0  0  0  0  0  0
  1  6  2  0  0  0  0
  1  2  1  0  0  0  0
  1 28  1  0  0  0  0
  2  3  2  0  0  0  0
  2 29  1  0  0  0  0
  3  4  1  0  0  0  0
  3 24  1  0  0  0  0
  4  5  2  0  0  0  0
  4 30  1  0  0  0  0
  5  6  1  0  0  0  0
  5 31  1  0  0  0  0
  6  7  1  0  0  0  0
  7 14  1  0  0  0  0
  7  8  2  0  0  0  0
  8 13  1  0  0  0  0
  8  9  1  0  0  0  0
  9 10  1  0  0  0  0
  9 32  1  0  0  0  0
  9 33  1  0  0  0  0
 10 11  1  0  0  0  0
 10 34  1  0  0  0  0
 10 35  1  0  0  0  0
 11 12  1  0  0  0  0
 11 36  1  0  0  0  0
 11 37  1  0  0  0  0
 12 13  1  0  0  0  0
 12 38  1  0  0  0  0
 12 39  1  0  0  0  0
 13 40  1  0  0  0  0
 13 41  1  0  0  0  0
 14 15  2  0  0  0  0
 14 19  1  0  0  0  0
 15 16  1  0  0  0  0
 15 42  1  0  0  0  0
 16 17  2  0  0  0  0
 16 43  1  0  0  0  0
 17 18  1  0  0  0  0
 17 20  1  0  0  0  0
 18 19  2  0  0  0  0
 18 44  1  0  0  0  0
 19 45  1  0  0  0  0
 20 21  1  0  0  0  0
 21 23  1  0  0  0  0
 21 22  2  0  0  0  0
 23 46  1  0  0  0  0
 23 47  1  0  0  0  0
 23 48  1  0  0  0  0
 24 25  1  0  0  0  0
 25 27  1  0  0  0  0
 25 26  2  0  0  0  0
 27 49  1  0  0  0  0
 27 50  1  0  0  0  0
 27 51  1  0  0  0  0
M  END
$$$$
