omegacsd_AOPCHY
 OpenBabel05071902173D

 51 53  0  0  0  0  0  0  0  0999 V2000
    9.2653  -78.3845   24.8203 C   0  0  0  0  0  0  0  0  0  0  0  0
    9.7310  -78.8257   26.0531 C   0  0  0  0  0  0  0  0  0  0  0  0
   11.0918  -78.9363   26.2790 C   0  0  0  0  0  0  0  0  0  0  0  0
   11.9835  -78.6166   25.2728 C   0  0  0  0  0  0  0  0  0  0  0  0
   11.5168  -78.1765   24.0413 C   0  0  0  0  0  0  0  0  0  0  0  0
   10.1529  -78.0442   23.8047 C   0  0  0  0  0  0  0  0  0  0  0  0
    9.6491  -77.5322   22.5104 C   0  0  0  0  0  0  0  0  0  0  0  0
    9.6399  -76.1951   22.2682 C   0  0  0  0  0  0  0  0  0  0  0  0
   10.1563  -75.1490   23.2253 C   0  0  0  0  0  0  0  0  0  0  0  0
   11.2493  -74.3131   22.5814 C   0  0  0  0  0  0  0  0  0  0  0  0
   10.7880  -73.6842   21.2823 C   0  0  0  0  0  0  0  0  0  0  0  0
   10.2021  -74.7110   20.3347 C   0  0  0  0  0  0  0  0  0  0  0  0
    9.1316  -75.5607   20.9974 C   0  0  0  0  0  0  0  0  0  0  0  0
    9.1271  -78.4764   21.4978 C   0  0  0  0  0  0  0  0  0  0  0  0
    7.7772  -78.8149   21.4754 C   0  0  0  0  0  0  0  0  0  0  0  0
    7.2855  -79.7440   20.5589 C   0  0  0  0  0  0  0  0  0  0  0  0
    8.1464  -80.3268   19.6500 C   0  0  0  0  0  0  0  0  0  0  0  0
    9.4922  -79.9933   19.6525 C   0  0  0  0  0  0  0  0  0  0  0  0
    9.9781  -79.0692   20.5709 C   0  0  0  0  0  0  0  0  0  0  0  0
    7.7372  -81.3606   18.8015 O   0  0  0  0  0  0  0  0  0  0  0  0
    7.3211  -81.0123   17.5205 C   0  0  0  0  0  0  0  0  0  0  0  0
    7.0047  -79.9038   17.1105 O   0  0  0  0  0  0  0  0  0  0  0  0
    7.3182  -82.2486   16.6671 C   0  0  0  0  0  0  0  0  0  0  0  0
   11.4840  -79.2903   27.5789 O   0  0  0  0  0  0  0  0  0  0  0  0
   12.7154  -78.8821   28.0878 C   0  0  0  0  0  0  0  0  0  0  0  0
   13.5920  -78.2583   27.5058 O   0  0  0  0  0  0  0  0  0  0  0  0
   12.8480  -79.3638   29.4915 C   0  0  0  0  0  0  0  0  0  0  0  0
    8.2022  -78.3020   24.6532 H   0  0  0  0  0  0  0  0  0  0  0  0
    9.0300  -79.0802   26.8324 H   0  0  0  0  0  0  0  0  0  0  0  0
   13.0463  -78.6890   25.4387 H   0  0  0  0  0  0  0  0  0  0  0  0
   12.2233  -77.9282   23.2640 H   0  0  0  0  0  0  0  0  0  0  0  0
   10.5486  -75.6109   24.1279 H   0  0  0  0  0  0  0  0  0  0  0  0
    9.3352  -74.4868   23.5151 H   0  0  0  0  0  0  0  0  0  0  0  0
   12.1136  -74.9494   22.3801 H   0  0  0  0  0  0  0  0  0  0  0  0
   11.5462  -73.5186   23.2696 H   0  0  0  0  0  0  0  0  0  0  0  0
   11.6298  -73.1808   20.8005 H   0  0  0  0  0  0  0  0  0  0  0  0
   10.0178  -72.9445   21.5100 H   0  0  0  0  0  0  0  0  0  0  0  0
   11.0030  -75.3638   19.9808 H   0  0  0  0  0  0  0  0  0  0  0  0
    9.7646  -74.1885   19.4810 H   0  0  0  0  0  0  0  0  0  0  0  0
    8.2708  -74.9242   21.2281 H   0  0  0  0  0  0  0  0  0  0  0  0
    8.8098  -76.3250   20.2948 H   0  0  0  0  0  0  0  0  0  0  0  0
    7.1007  -78.3521   22.1791 H   0  0  0  0  0  0  0  0  0  0  0  0
    6.2439  -80.0064   20.5727 H   0  0  0  0  0  0  0  0  0  0  0  0
   10.1651  -80.4569   18.9479 H   0  0  0  0  0  0  0  0  0  0  0  0
   11.0270  -78.8139   20.5643 H   0  0  0  0  0  0  0  0  0  0  0  0
    7.6393  -83.1071   17.2576 H   0  0  0  0  0  0  0  0  0  0  0  0
    8.0084  -82.1250   15.8336 H   0  0  0  0  0  0  0  0  0  0  0  0
    6.3189  -82.4408   16.2852 H   0  0  0  0  0  0  0  0  0  0  0  0
   11.9411  -79.8839   29.7959 H   0  0  0  0  0  0  0  0  0  0  0  0
   13.0080  -78.5186   30.1567 H   0  0  0  0  0  0  0  0  0  0  0  0
   13.6882  -80.0507   29.5665 H   0  0  0  0  0  0  0  0  0  0  0  0
  1  6  2  0  0  0  0
  1  2  1  0  0  0  0
  1 28  1  0  0  0  0
  2  3  2  0  0  0  0
  2 29  1  0  0  0  0
  3  4  1  0  0  0  0
  3 24  1  0  0  0  0
  4  5  2  0  0  0  0
  4 30  1  0  0  0  0
  5  6  1  0  0  0  0
  5 31  1  0  0  0  0
  6  7  1  0  0  0  0
  7 14  1  0  0  0  0
  7  8  2  0  0  0  0
  8 13  1  0  0  0  0
  8  9  1  0  0  0  0
  9 10  1  0  0  0  0
  9 32  1  0  0  0  0
  9 33  1  0  0  0  0
 10 11  1  0  0  0  0
 10 34  1  0  0  0  0
 10 35  1  0  0  0  0
 11 12  1  0  0  0  0
 11 36  1  0  0  0  0
 11 37  1  0  0  0  0
 12 13  1  0  0  0  0
 12 38  1  0  0  0  0
 12 39  1  0  0  0  0
 13 40  1  0  0  0  0
 13 41  1  0  0  0  0
 14 15  2  0  0  0  0
 14 19  1  0  0  0  0
 15 16  1  0  0  0  0
 15 42  1  0  0  0  0
 16 17  2  0  0  0  0
 16 43  1  0  0  0  0
 17 18  1  0  0  0  0
 17 20  1  0  0  0  0
 18 19  2  0  0  0  0
 18 44  1  0  0  0  0
 19 45  1  0  0  0  0
 20 21  1  0  0  0  0
 21 23  1  0  0  0  0
 21 22  2  0  0  0  0
 23 46  1  0  0  0  0
 23 47  1  0  0  0  0
 23 48  1  0  0  0  0
 24 25  1  0  0  0  0
 25 27  1  0  0  0  0
 25 26  2  0  0  0  0
 27 49  1  0  0  0  0
 27 50  1  0  0  0  0
 27 51  1  0  0  0  0
M  END
$$$$
