omegacsd_AOPCHY
 OpenBabel05021919103D

 51 53  0  0  0  0  0  0  0  0999 V2000
  -51.2326   31.1629  -27.4102 C   0  0  0  0  0  0  0  0  0  0  0  0
  -52.1205   32.0207  -28.0425 C   0  0  0  0  0  0  0  0  0  0  0  0
  -53.0781   32.6906  -27.3075 C   0  0  0  0  0  0  0  0  0  0  0  0
  -53.1543   32.5080  -25.9380 C   0  0  0  0  0  0  0  0  0  0  0  0
  -52.2583   31.6472  -25.3059 C   0  0  0  0  0  0  0  0  0  0  0  0
  -51.2806   30.9753  -26.0334 C   0  0  0  0  0  0  0  0  0  0  0  0
  -50.2943   30.0960  -25.3630 C   0  0  0  0  0  0  0  0  0  0  0  0
  -49.0874   30.5954  -24.9862 C   0  0  0  0  0  0  0  0  0  0  0  0
  -48.6650   32.0337  -25.1610 C   0  0  0  0  0  0  0  0  0  0  0  0
  -48.2924   32.6590  -23.8284 C   0  0  0  0  0  0  0  0  0  0  0  0
  -47.2263   31.8602  -23.1074 C   0  0  0  0  0  0  0  0  0  0  0  0
  -47.6029   30.3986  -22.9823 C   0  0  0  0  0  0  0  0  0  0  0  0
  -48.0013   29.7912  -24.3154 C   0  0  0  0  0  0  0  0  0  0  0  0
  -50.6151   28.6694  -25.1337 C   0  0  0  0  0  0  0  0  0  0  0  0
  -50.1975   27.6986  -26.0375 C   0  0  0  0  0  0  0  0  0  0  0  0
  -50.5403   26.3640  -25.8579 C   0  0  0  0  0  0  0  0  0  0  0  0
  -51.2898   25.9887  -24.7587 C   0  0  0  0  0  0  0  0  0  0  0  0
  -51.7086   26.9405  -23.8480 C   0  0  0  0  0  0  0  0  0  0  0  0
  -51.3671   28.2742  -24.0328 C   0  0  0  0  0  0  0  0  0  0  0  0
  -51.7669   24.6837  -24.5999 O   0  0  0  0  0  0  0  0  0  0  0  0
  -50.8437   23.6680  -24.3710 C   0  0  0  0  0  0  0  0  0  0  0  0
  -49.6290   23.7767  -24.2909 O   0  0  0  0  0  0  0  0  0  0  0  0
  -51.5803   22.3732  -24.2201 C   0  0  0  0  0  0  0  0  0  0  0  0
  -53.8897   33.6031  -27.9957 O   0  0  0  0  0  0  0  0  0  0  0  0
  -53.5473   34.9588  -28.0036 C   0  0  0  0  0  0  0  0  0  0  0  0
  -52.7068   35.5140  -27.3108 O   0  0  0  0  0  0  0  0  0  0  0  0
  -54.4134   35.6693  -28.9969 C   0  0  0  0  0  0  0  0  0  0  0  0
  -50.4909   30.6437  -27.9948 H   0  0  0  0  0  0  0  0  0  0  0  0
  -52.0710   32.1581  -29.1085 H   0  0  0  0  0  0  0  0  0  0  0  0
  -53.8878   33.0355  -25.3540 H   0  0  0  0  0  0  0  0  0  0  0  0
  -52.3198   31.5029  -24.2388 H   0  0  0  0  0  0  0  0  0  0  0  0
  -49.4631   32.6139  -25.6158 H   0  0  0  0  0  0  0  0  0  0  0  0
  -47.7944   32.0754  -25.8208 H   0  0  0  0  0  0  0  0  0  0  0  0
  -49.1820   32.7104  -23.1991 H   0  0  0  0  0  0  0  0  0  0  0  0
  -47.9175   33.6691  -23.9995 H   0  0  0  0  0  0  0  0  0  0  0  0
  -47.0642   32.2814  -22.1134 H   0  0  0  0  0  0  0  0  0  0  0  0
  -46.2992   31.9293  -23.6778 H   0  0  0  0  0  0  0  0  0  0  0  0
  -48.4408   30.3081  -22.2894 H   0  0  0  0  0  0  0  0  0  0  0  0
  -46.7473   29.8510  -22.5842 H   0  0  0  0  0  0  0  0  0  0  0  0
  -47.1208   29.7600  -24.9640 H   0  0  0  0  0  0  0  0  0  0  0  0
  -48.3386   28.7726  -24.1478 H   0  0  0  0  0  0  0  0  0  0  0  0
  -49.6001   27.9849  -26.8882 H   0  0  0  0  0  0  0  0  0  0  0  0
  -50.2227   25.6295  -26.5771 H   0  0  0  0  0  0  0  0  0  0  0  0
  -52.3020   26.6490  -22.9982 H   0  0  0  0  0  0  0  0  0  0  0  0
  -51.6928   29.0099  -23.3154 H   0  0  0  0  0  0  0  0  0  0  0  0
  -52.6505   22.5384  -24.3329 H   0  0  0  0  0  0  0  0  0  0  0  0
  -51.3947   21.9533  -23.2354 H   0  0  0  0  0  0  0  0  0  0  0  0
  -51.2542   21.6697  -24.9807 H   0  0  0  0  0  0  0  0  0  0  0  0
  -55.0666   34.9565  -29.4965 H   0  0  0  0  0  0  0  0  0  0  0  0
  -53.7958   36.1593  -29.7449 H   0  0  0  0  0  0  0  0  0  0  0  0
  -55.0253   36.4100  -28.4911 H   0  0  0  0  0  0  0  0  0  0  0  0
  1  6  2  0  0  0  0
  1  2  1  0  0  0  0
  1 28  1  0  0  0  0
  2  3  2  0  0  0  0
  2 29  1  0  0  0  0
  3  4  1  0  0  0  0
  3 24  1  0  0  0  0
  4  5  2  0  0  0  0
  4 30  1  0  0  0  0
  5  6  1  0  0  0  0
  5 31  1  0  0  0  0
  6  7  1  0  0  0  0
  7 14  1  0  0  0  0
  7  8  2  0  0  0  0
  8 13  1  0  0  0  0
  8  9  1  0  0  0  0
  9 10  1  0  0  0  0
  9 32  1  0  0  0  0
  9 33  1  0  0  0  0
 10 11  1  0  0  0  0
 10 34  1  0  0  0  0
 10 35  1  0  0  0  0
 11 12  1  0  0  0  0
 11 36  1  0  0  0  0
 11 37  1  0  0  0  0
 12 13  1  0  0  0  0
 12 38  1  0  0  0  0
 12 39  1  0  0  0  0
 13 40  1  0  0  0  0
 13 41  1  0  0  0  0
 14 15  2  0  0  0  0
 14 19  1  0  0  0  0
 15 16  1  0  0  0  0
 15 42  1  0  0  0  0
 16 17  2  0  0  0  0
 16 43  1  0  0  0  0
 17 18  1  0  0  0  0
 17 20  1  0  0  0  0
 18 19  2  0  0  0  0
 18 44  1  0  0  0  0
 19 45  1  0  0  0  0
 20 21  1  0  0  0  0
 21 23  1  0  0  0  0
 21 22  2  0  0  0  0
 23 46  1  0  0  0  0
 23 47  1  0  0  0  0
 23 48  1  0  0  0  0
 24 25  1  0  0  0  0
 25 27  1  0  0  0  0
 25 26  2  0  0  0  0
 27 49  1  0  0  0  0
 27 50  1  0  0  0  0
 27 51  1  0  0  0  0
M  END
$$$$
