omegacsd_AOPCHY
 OpenBabel05071901373D

 51 53  0  0  0  0  0  0  0  0999 V2000
  -29.8424   18.2517  -32.3519 C   0  0  0  0  0  0  0  0  0  0  0  0
  -28.8494   19.0136  -32.9529 C   0  0  0  0  0  0  0  0  0  0  0  0
  -27.6228   18.4461  -33.2469 C   0  0  0  0  0  0  0  0  0  0  0  0
  -27.3871   17.1185  -32.9451 C   0  0  0  0  0  0  0  0  0  0  0  0
  -28.3823   16.3592  -32.3368 C   0  0  0  0  0  0  0  0  0  0  0  0
  -29.6244   16.9142  -32.0446 C   0  0  0  0  0  0  0  0  0  0  0  0
  -30.7022   16.0975  -31.4412 C   0  0  0  0  0  0  0  0  0  0  0  0
  -30.7742   15.9585  -30.0921 C   0  0  0  0  0  0  0  0  0  0  0  0
  -29.8378   16.6235  -29.1144 C   0  0  0  0  0  0  0  0  0  0  0  0
  -30.6024   17.4906  -28.1298 C   0  0  0  0  0  0  0  0  0  0  0  0
  -31.6814   16.7098  -27.4081 C   0  0  0  0  0  0  0  0  0  0  0  0
  -32.5916   15.9794  -28.3734 C   0  0  0  0  0  0  0  0  0  0  0  0
  -31.8156   15.1389  -29.3713 C   0  0  0  0  0  0  0  0  0  0  0  0
  -31.6819   15.4103  -32.3144 C   0  0  0  0  0  0  0  0  0  0  0  0
  -31.5362   14.0589  -32.6126 C   0  0  0  0  0  0  0  0  0  0  0  0
  -32.4221   13.4180  -33.4725 C   0  0  0  0  0  0  0  0  0  0  0  0
  -33.4696   14.1252  -34.0296 C   0  0  0  0  0  0  0  0  0  0  0  0
  -33.6322   15.4678  -33.7399 C   0  0  0  0  0  0  0  0  0  0  0  0
  -32.7444   16.1048  -32.8820 C   0  0  0  0  0  0  0  0  0  0  0  0
  -34.3067   13.5620  -34.9979 O   0  0  0  0  0  0  0  0  0  0  0  0
  -35.3977   12.8138  -34.5667 C   0  0  0  0  0  0  0  0  0  0  0  0
  -35.6521   12.4697  -33.4222 O   0  0  0  0  0  0  0  0  0  0  0  0
  -36.2551   12.4883  -35.7513 C   0  0  0  0  0  0  0  0  0  0  0  0
  -26.7141   19.2492  -33.9521 O   0  0  0  0  0  0  0  0  0  0  0  0
  -25.3601   19.2414  -33.6280 C   0  0  0  0  0  0  0  0  0  0  0  0
  -24.8173   18.5965  -32.7431 O   0  0  0  0  0  0  0  0  0  0  0  0
  -24.6430   20.2033  -34.5190 C   0  0  0  0  0  0  0  0  0  0  0  0
  -30.7939   18.7051  -32.1223 H   0  0  0  0  0  0  0  0  0  0  0  0
  -29.0369   20.0477  -33.1930 H   0  0  0  0  0  0  0  0  0  0  0  0
  -26.4380   16.6657  -33.1810 H   0  0  0  0  0  0  0  0  0  0  0  0
  -28.1869   15.3264  -32.0906 H   0  0  0  0  0  0  0  0  0  0  0  0
  -29.1093   17.2376  -29.6379 H   0  0  0  0  0  0  0  0  0  0  0  0
  -29.2961   15.8555  -28.5549 H   0  0  0  0  0  0  0  0  0  0  0  0
  -31.0655   18.3185  -28.6697 H   0  0  0  0  0  0  0  0  0  0  0  0
  -29.9068   17.8925  -27.3907 H   0  0  0  0  0  0  0  0  0  0  0  0
  -32.2735   17.3893  -26.7911 H   0  0  0  0  0  0  0  0  0  0  0  0
  -31.2009   15.9729  -26.7624 H   0  0  0  0  0  0  0  0  0  0  0  0
  -33.1894   16.7122  -28.9187 H   0  0  0  0  0  0  0  0  0  0  0  0
  -33.2568   15.3293  -27.8017 H   0  0  0  0  0  0  0  0  0  0  0  0
  -31.3250   14.3204  -28.8347 H   0  0  0  0  0  0  0  0  0  0  0  0
  -32.5154   14.7088  -30.0825 H   0  0  0  0  0  0  0  0  0  0  0  0
  -30.7258   13.5002  -32.1685 H   0  0  0  0  0  0  0  0  0  0  0  0
  -32.2807   12.3766  -33.7055 H   0  0  0  0  0  0  0  0  0  0  0  0
  -34.4441   16.0209  -34.1835 H   0  0  0  0  0  0  0  0  0  0  0  0
  -32.8815   17.1511  -32.6576 H   0  0  0  0  0  0  0  0  0  0  0  0
  -35.8167   12.9089  -36.6559 H   0  0  0  0  0  0  0  0  0  0  0  0
  -37.2482   12.9119  -35.6182 H   0  0  0  0  0  0  0  0  0  0  0  0
  -36.3338   11.4113  -35.8699 H   0  0  0  0  0  0  0  0  0  0  0  0
  -25.3411   20.6500  -35.2256 H   0  0  0  0  0  0  0  0  0  0  0  0
  -23.8662   19.6855  -35.0746 H   0  0  0  0  0  0  0  0  0  0  0  0
  -24.1967   20.9948  -33.9221 H   0  0  0  0  0  0  0  0  0  0  0  0
  1  6  2  0  0  0  0
  1  2  1  0  0  0  0
  1 28  1  0  0  0  0
  2  3  2  0  0  0  0
  2 29  1  0  0  0  0
  3  4  1  0  0  0  0
  3 24  1  0  0  0  0
  4  5  2  0  0  0  0
  4 30  1  0  0  0  0
  5  6  1  0  0  0  0
  5 31  1  0  0  0  0
  6  7  1  0  0  0  0
  7 14  1  0  0  0  0
  7  8  2  0  0  0  0
  8 13  1  0  0  0  0
  8  9  1  0  0  0  0
  9 10  1  0  0  0  0
  9 32  1  0  0  0  0
  9 33  1  0  0  0  0
 10 11  1  0  0  0  0
 10 34  1  0  0  0  0
 10 35  1  0  0  0  0
 11 12  1  0  0  0  0
 11 36  1  0  0  0  0
 11 37  1  0  0  0  0
 12 13  1  0  0  0  0
 12 38  1  0  0  0  0
 12 39  1  0  0  0  0
 13 40  1  0  0  0  0
 13 41  1  0  0  0  0
 14 15  2  0  0  0  0
 14 19  1  0  0  0  0
 15 16  1  0  0  0  0
 15 42  1  0  0  0  0
 16 17  2  0  0  0  0
 16 43  1  0  0  0  0
 17 18  1  0  0  0  0
 17 20  1  0  0  0  0
 18 19  2  0  0  0  0
 18 44  1  0  0  0  0
 19 45  1  0  0  0  0
 20 21  1  0  0  0  0
 21 23  1  0  0  0  0
 21 22  2  0  0  0  0
 23 46  1  0  0  0  0
 23 47  1  0  0  0  0
 23 48  1  0  0  0  0
 24 25  1  0  0  0  0
 25 27  1  0  0  0  0
 25 26  2  0  0  0  0
 27 49  1  0  0  0  0
 27 50  1  0  0  0  0
 27 51  1  0  0  0  0
M  END
$$$$
