0NL_4E4N_A
 OpenBabel04261915543D

 48 51  0  0  0  0  0  0  0  0999 V2000
    3.8640   49.8290   -0.5440 C   0  0  0  0  0  0  0  0  0  0  0  0
    4.0870   49.7010    0.9560 C   0  0  0  0  0  0  0  0  0  0  0  0
    2.7790   49.1970    1.5660 C   0  0  0  0  0  0  0  0  0  0  0  0
    5.2050   48.7000    1.2780 C   0  0  0  0  0  0  0  0  0  0  0  0
    4.3510   51.0220    1.5170 O   0  0  0  0  0  0  0  0  0  0  0  0
    5.4870   51.7330    1.3720 C   0  0  0  0  0  0  0  0  0  0  0  0
    6.3550   51.4420    0.5600 O   0  0  0  0  0  0  0  0  0  0  0  0
    5.6140   52.8240    2.1640 N   0  0  0  0  0  0  0  0  0  0  0  0
    6.8280   53.6530    2.1250 C   0  0  2  0  0  0  0  0  0  0  0  0
    6.7780   54.5890    3.3560 C   0  0  0  0  0  0  0  0  0  0  0  0
    7.0860   55.9980    2.8010 C   0  0  0  0  0  0  0  0  0  0  0  0
    6.6160   55.9510    1.3280 C   0  0  2  0  0  0  0  0  0  0  0  0
    6.9670   54.5290    0.8590 C   0  0  0  0  0  0  0  0  0  0  0  0
    7.3400   57.0570    0.6780 N   0  0  0  0  0  0  0  0  0  0  0  0
    8.5820   57.0540    0.0880 C   0  0  0  0  0  0  0  0  0  0  0  0
    8.8670   58.2640   -0.3340 N   0  0  0  0  0  0  0  0  0  0  0  0
    7.8440   59.1030   -0.0240 C   0  0  0  0  0  0  0  0  0  0  0  0
    6.8570   58.3330    0.6360 C   0  0  0  0  0  0  0  0  0  0  0  0
    5.6730   58.9630    1.0720 C   0  0  0  0  0  0  0  0  0  0  0  0
    4.4520   58.5190    1.7730 C   0  0  0  0  0  0  0  0  0  0  0  0
    3.6790   59.6060    1.8970 C   0  0  0  0  0  0  0  0  0  0  0  0
    4.3060   60.7040    1.3450 N   0  0  0  0  0  0  0  0  0  0  0  0
    5.5220   60.3420    0.8250 C   0  0  0  0  0  0  0  0  0  0  0  0
    6.4920   61.0380    0.2030 N   0  0  0  0  0  0  0  0  0  0  0  0
    7.6060   60.4750   -0.2120 C   0  0  0  0  0  0  0  0  0  0  0  0
    3.6700   48.8622   -0.9595 H   0  0  0  0  0  0  0  0  0  0  0  0
    4.7381   50.2445   -1.0004 H   0  0  0  0  0  0  0  0  0  0  0  0
    3.0271   50.4702   -0.7267 H   0  0  0  0  0  0  0  0  0  0  0  0
    2.5538   48.2267    1.1753 H   0  0  0  0  0  0  0  0  0  0  0  0
    1.9870   49.8731    1.3201 H   0  0  0  0  0  0  0  0  0  0  0  0
    2.8807   49.1384    2.6295 H   0  0  0  0  0  0  0  0  0  0  0  0
    4.9677   47.7496    0.8475 H   0  0  0  0  0  0  0  0  0  0  0  0
    5.2976   48.5978    2.3391 H   0  0  0  0  0  0  0  0  0  0  0  0
    6.1292   49.0547    0.8719 H   0  0  0  0  0  0  0  0  0  0  0  0
    4.8817   53.0661    2.7759 H   0  0  0  0  0  0  0  0  0  0  0  0
    7.6669   52.9889    2.1216 H   0  0  0  0  0  0  0  0  0  0  0  0
    7.5132   54.3003    4.0779 H   0  0  0  0  0  0  0  0  0  0  0  0
    5.8303   54.5508    3.8513 H   0  0  0  0  0  0  0  0  0  0  0  0
    8.1344   56.2044    2.8562 H   0  0  0  0  0  0  0  0  0  0  0  0
    6.5956   56.7687    3.3581 H   0  0  0  0  0  0  0  0  0  0  0  0
    5.5768   56.0966    1.1188 H   0  0  0  0  0  0  0  0  0  0  0  0
    6.2878   54.2040    0.0988 H   0  0  0  0  0  0  0  0  0  0  0  0
    7.9473   54.4733    0.4337 H   0  0  0  0  0  0  0  0  0  0  0  0
    9.1946   56.2291   -0.0081 H   0  0  0  0  0  0  0  0  0  0  0  0
    4.2374   57.5644    2.1011 H   0  0  0  0  0  0  0  0  0  0  0  0
    2.7479   59.6201    2.3417 H   0  0  0  0  0  0  0  0  0  0  0  0
    3.9342   61.6154    1.3271 H   0  0  0  0  0  0  0  0  0  0  0  0
    8.3190   61.0521   -0.6848 H   0  0  0  0  0  0  0  0  0  0  0  0
  1  2  1  0  0  0  0
  1 26  1  0  0  0  0
  1 27  1  0  0  0  0
  1 28  1  0  0  0  0
  2  3  1  0  0  0  0
  2  4  1  0  0  0  0
  2  5  1  0  0  0  0
  3 29  1  0  0  0  0
  3 30  1  0  0  0  0
  3 31  1  0  0  0  0
  4 32  1  0  0  0  0
  4 33  1  0  0  0  0
  4 34  1  0  0  0  0
  5  6  1  0  0  0  0
  6  7  2  0  0  0  0
  6  8  1  0  0  0  0
  8  9  1  0  0  0  0
  8 35  1  0  0  0  0
  9 10  1  0  0  0  0
  9 13  1  0  0  0  0
  9 36  1  1  0  0  0
 10 11  1  0  0  0  0
 10 37  1  0  0  0  0
 10 38  1  0  0  0  0
 11 12  1  0  0  0  0
 11 39  1  0  0  0  0
 11 40  1  0  0  0  0
 12 13  1  0  0  0  0
 12 14  1  0  0  0  0
 12 41  1  6  0  0  0
 13 42  1  0  0  0  0
 13 43  1  0  0  0  0
 14 15  1  0  0  0  0
 14 18  1  0  0  0  0
 15 16  2  0  0  0  0
 15 44  1  0  0  0  0
 16 17  1  0  0  0  0
 17 18  2  0  0  0  0
 17 25  1  0  0  0  0
 18 19  1  0  0  0  0
 19 20  1  0  0  0  0
 19 23  2  0  0  0  0
 20 21  2  0  0  0  0
 20 45  1  0  0  0  0
 21 22  1  0  0  0  0
 21 46  1  0  0  0  0
 22 23  1  0  0  0  0
 22 47  1  0  0  0  0
 23 24  1  0  0  0  0
 24 25  2  0  0  0  0
 25 48  1  0  0  0  0
M  END
$$$$
