0NL_4E4N_A
 OpenBabel05071923283D

 48 51  0  0  0  0  0  0  0  0999 V2000
    3.6936   50.9382   -0.8216 C   0  0  0  0  0  0  0  0  0  0  0  0
    3.7271   50.1828    0.4992 C   0  0  0  0  0  0  0  0  0  0  0  0
    2.2771   49.9494    0.9232 C   0  0  0  0  0  0  0  0  0  0  0  0
    4.4290   48.8254    0.3565 C   0  0  0  0  0  0  0  0  0  0  0  0
    4.3510   51.0220    1.5170 O   0  0  0  0  0  0  0  0  0  0  0  0
    5.4870   51.7330    1.3720 C   0  0  0  0  0  0  0  0  0  0  0  0
    6.3550   51.4420    0.5600 O   0  0  0  0  0  0  0  0  0  0  0  0
    5.6140   52.8240    2.1640 N   0  0  0  0  0  0  0  0  0  0  0  0
    6.6805   53.8097    1.9328 C   0  0  2  0  0  0  0  0  0  0  0  0
    7.8192   53.4885    2.9298 C   0  0  0  0  0  0  0  0  0  0  0  0
    8.1746   54.8434    3.5826 C   0  0  0  0  0  0  0  0  0  0  0  0
    6.8718   55.6732    3.4986 C   0  0  2  0  0  0  0  0  0  0  0  0
    6.2535   55.2799    2.1465 C   0  0  0  0  0  0  0  0  0  0  0  0
    7.3186   57.0699    3.6378 N   0  0  0  0  0  0  0  0  0  0  0  0
    8.4497   57.6736    3.1409 C   0  0  0  0  0  0  0  0  0  0  0  0
    8.4838   58.9258    3.5336 N   0  0  0  0  0  0  0  0  0  0  0  0
    7.3995   59.1851    4.3105 C   0  0  0  0  0  0  0  0  0  0  0  0
    6.6456   57.9900    4.3887 C   0  0  0  0  0  0  0  0  0  0  0  0
    5.4537   57.9784    5.1423 C   0  0  0  0  0  0  0  0  0  0  0  0
    4.4271   56.9649    5.4557 C   0  0  0  0  0  0  0  0  0  0  0  0
    3.5229   57.5793    6.2300 C   0  0  0  0  0  0  0  0  0  0  0  0
    3.8900   58.8919    6.4442 N   0  0  0  0  0  0  0  0  0  0  0  0
    5.0605   59.1687    5.7858 C   0  0  0  0  0  0  0  0  0  0  0  0
    5.8144   60.2801    5.6933 N   0  0  0  0  0  0  0  0  0  0  0  0
    6.9307   60.3170    4.9985 C   0  0  0  0  0  0  0  0  0  0  0  0
    3.2368   50.3261   -1.5710 H   0  0  0  0  0  0  0  0  0  0  0  0
    4.6924   51.1807   -1.1193 H   0  0  0  0  0  0  0  0  0  0  0  0
    3.1281   51.8388   -0.7031 H   0  0  0  0  0  0  0  0  0  0  0  0
    1.7874   49.3352    0.1967 H   0  0  0  0  0  0  0  0  0  0  0  0
    1.7708   50.8893    0.9951 H   0  0  0  0  0  0  0  0  0  0  0  0
    2.2580   49.4603    1.8747 H   0  0  0  0  0  0  0  0  0  0  0  0
    3.9380   48.2475   -0.3984 H   0  0  0  0  0  0  0  0  0  0  0  0
    4.3876   48.3026    1.2892 H   0  0  0  0  0  0  0  0  0  0  0  0
    5.4509   48.9796    0.0792 H   0  0  0  0  0  0  0  0  0  0  0  0
    4.9821   52.9594    2.9067 H   0  0  0  0  0  0  0  0  0  0  0  0
    6.9706   53.7298    0.9060 H   0  0  0  0  0  0  0  0  0  0  0  0
    8.6665   53.0852    2.4156 H   0  0  0  0  0  0  0  0  0  0  0  0
    7.5244   52.7586    3.6546 H   0  0  0  0  0  0  0  0  0  0  0  0
    8.9643   55.3255    3.0453 H   0  0  0  0  0  0  0  0  0  0  0  0
    8.5182   54.7300    4.5895 H   0  0  0  0  0  0  0  0  0  0  0  0
    6.1169   55.5148    4.2402 H   0  0  0  0  0  0  0  0  0  0  0  0
    5.1872   55.3619    2.1811 H   0  0  0  0  0  0  0  0  0  0  0  0
    6.5809   55.9164    1.3511 H   0  0  0  0  0  0  0  0  0  0  0  0
    9.1610   57.2139    2.5512 H   0  0  0  0  0  0  0  0  0  0  0  0
    4.4095   55.9820    5.1419 H   0  0  0  0  0  0  0  0  0  0  0  0
    2.6735   57.1346    6.6116 H   0  0  0  0  0  0  0  0  0  0  0  0
    3.3849   59.5363    6.9908 H   0  0  0  0  0  0  0  0  0  0  0  0
    7.4726   61.1943    4.9578 H   0  0  0  0  0  0  0  0  0  0  0  0
  1  2  1  0  0  0  0
  1 26  1  0  0  0  0
  1 27  1  0  0  0  0
  1 28  1  0  0  0  0
  2  3  1  0  0  0  0
  2  4  1  0  0  0  0
  2  5  1  0  0  0  0
  3 29  1  0  0  0  0
  3 30  1  0  0  0  0
  3 31  1  0  0  0  0
  4 32  1  0  0  0  0
  4 33  1  0  0  0  0
  4 34  1  0  0  0  0
  5  6  1  0  0  0  0
  6  7  2  0  0  0  0
  6  8  1  0  0  0  0
  8  9  1  0  0  0  0
  8 35  1  0  0  0  0
  9 10  1  0  0  0  0
  9 13  1  0  0  0  0
  9 36  1  6  0  0  0
 10 11  1  0  0  0  0
 10 37  1  0  0  0  0
 10 38  1  0  0  0  0
 11 12  1  0  0  0  0
 11 39  1  0  0  0  0
 11 40  1  0  0  0  0
 12 13  1  0  0  0  0
 12 14  1  0  0  0  0
 12 41  1  1  0  0  0
 13 42  1  0  0  0  0
 13 43  1  0  0  0  0
 14 15  1  0  0  0  0
 14 18  1  0  0  0  0
 15 16  2  0  0  0  0
 15 44  1  0  0  0  0
 16 17  1  0  0  0  0
 17 18  2  0  0  0  0
 17 25  1  0  0  0  0
 18 19  1  0  0  0  0
 19 20  1  0  0  0  0
 19 23  2  0  0  0  0
 20 21  2  0  0  0  0
 20 45  1  0  0  0  0
 21 22  1  0  0  0  0
 21 46  1  0  0  0  0
 22 23  1  0  0  0  0
 22 47  1  0  0  0  0
 23 24  1  0  0  0  0
 24 25  2  0  0  0  0
 25 48  1  0  0  0  0
M  END
$$$$
