0NL_4E4N_A
 OpenBabel05201912183D

 48 51  0  0  0  0  0  0  0  0999 V2000
    2.6059   49.3658    1.1708 C   0  0  0  0  0  0  0  0  0  0  0  0
    3.7991   50.0783    0.5504 C   0  0  0  0  0  0  0  0  0  0  0  0
    4.8683   49.0193    0.2818 C   0  0  0  0  0  0  0  0  0  0  0  0
    3.4261   50.7567   -0.7748 C   0  0  0  0  0  0  0  0  0  0  0  0
    4.3510   51.0220    1.5170 O   0  0  0  0  0  0  0  0  0  0  0  0
    5.4870   51.7330    1.3720 C   0  0  0  0  0  0  0  0  0  0  0  0
    6.3550   51.4420    0.5600 O   0  0  0  0  0  0  0  0  0  0  0  0
    5.6140   52.8240    2.1640 N   0  0  0  0  0  0  0  0  0  0  0  0
    6.8444   53.6293    2.1550 C   0  0  2  0  0  0  0  0  0  0  0  0
    7.2155   53.9075    3.6311 C   0  0  0  0  0  0  0  0  0  0  0  0
    7.4925   55.4265    3.6953 C   0  0  0  0  0  0  0  0  0  0  0  0
    6.6408   56.0295    2.5535 C   0  0  2  0  0  0  0  0  0  0  0  0
    6.7182   54.9866    1.4259 C   0  0  0  0  0  0  0  0  0  0  0  0
    7.2627   57.3376    2.2854 N   0  0  0  0  0  0  0  0  0  0  0  0
    8.5494   57.6236    1.8938 C   0  0  0  0  0  0  0  0  0  0  0  0
    8.6993   58.9249    1.8065 N   0  0  0  0  0  0  0  0  0  0  0  0
    7.5367   59.5376    2.1521 C   0  0  0  0  0  0  0  0  0  0  0  0
    6.6060   58.5200    2.4696 C   0  0  0  0  0  0  0  0  0  0  0  0
    5.3017   58.8819    2.8655 C   0  0  0  0  0  0  0  0  0  0  0  0
    4.0888   58.1408    3.2641 C   0  0  0  0  0  0  0  0  0  0  0  0
    3.1562   59.0669    3.5234 C   0  0  0  0  0  0  0  0  0  0  0  0
    3.6731   60.3320    3.3339 N   0  0  0  0  0  0  0  0  0  0  0  0
    4.9790   60.2523    2.9234 C   0  0  0  0  0  0  0  0  0  0  0  0
    5.8996   61.1874    2.6230 N   0  0  0  0  0  0  0  0  0  0  0  0
    7.1229   60.8767    2.2527 C   0  0  0  0  0  0  0  0  0  0  0  0
    2.1981   48.6726    0.4650 H   0  0  0  0  0  0  0  0  0  0  0  0
    1.8596   50.0850    1.4364 H   0  0  0  0  0  0  0  0  0  0  0  0
    2.9213   48.8387    2.0470 H   0  0  0  0  0  0  0  0  0  0  0  0
    4.4961   48.3080   -0.4255 H   0  0  0  0  0  0  0  0  0  0  0  0
    5.1125   48.5192    1.1957 H   0  0  0  0  0  0  0  0  0  0  0  0
    5.7448   49.4894   -0.1127 H   0  0  0  0  0  0  0  0  0  0  0  0
    3.0273   50.0277   -1.4489 H   0  0  0  0  0  0  0  0  0  0  0  0
    4.2986   51.2016   -1.2058 H   0  0  0  0  0  0  0  0  0  0  0  0
    2.6922   51.5140   -0.5936 H   0  0  0  0  0  0  0  0  0  0  0  0
    4.8705   53.0822    2.7555 H   0  0  0  0  0  0  0  0  0  0  0  0
    7.5856   53.0721    1.6213 H   0  0  0  0  0  0  0  0  0  0  0  0
    8.0878   53.3541    3.9101 H   0  0  0  0  0  0  0  0  0  0  0  0
    6.4370   53.6125    4.3033 H   0  0  0  0  0  0  0  0  0  0  0  0
    8.5315   55.6275    3.5377 H   0  0  0  0  0  0  0  0  0  0  0  0
    7.2445   55.8433    4.6491 H   0  0  0  0  0  0  0  0  0  0  0  0
    5.6019   56.2121    2.7333 H   0  0  0  0  0  0  0  0  0  0  0  0
    5.8320   55.0121    0.8268 H   0  0  0  0  0  0  0  0  0  0  0  0
    7.5380   55.1676    0.7625 H   0  0  0  0  0  0  0  0  0  0  0  0
    9.2828   56.9243    1.6988 H   0  0  0  0  0  0  0  0  0  0  0  0
    3.9811   57.1166    3.3298 H   0  0  0  0  0  0  0  0  0  0  0  0
    2.1896   58.8633    3.8220 H   0  0  0  0  0  0  0  0  0  0  0  0
    3.1764   61.1704    3.4733 H   0  0  0  0  0  0  0  0  0  0  0  0
    7.7918   61.6309    2.0320 H   0  0  0  0  0  0  0  0  0  0  0  0
  1  2  1  0  0  0  0
  1 26  1  0  0  0  0
  1 27  1  0  0  0  0
  1 28  1  0  0  0  0
  2  3  1  0  0  0  0
  2  4  1  0  0  0  0
  2  5  1  0  0  0  0
  3 29  1  0  0  0  0
  3 30  1  0  0  0  0
  3 31  1  0  0  0  0
  4 32  1  0  0  0  0
  4 33  1  0  0  0  0
  4 34  1  0  0  0  0
  5  6  1  0  0  0  0
  6  7  2  0  0  0  0
  6  8  1  0  0  0  0
  8  9  1  0  0  0  0
  8 35  1  0  0  0  0
  9 10  1  0  0  0  0
  9 13  1  0  0  0  0
  9 36  1  6  0  0  0
 10 11  1  0  0  0  0
 10 37  1  0  0  0  0
 10 38  1  0  0  0  0
 11 12  1  0  0  0  0
 11 39  1  0  0  0  0
 11 40  1  0  0  0  0
 12 13  1  0  0  0  0
 12 14  1  0  0  0  0
 12 41  1  1  0  0  0
 13 42  1  0  0  0  0
 13 43  1  0  0  0  0
 14 15  1  0  0  0  0
 14 18  1  0  0  0  0
 15 16  2  0  0  0  0
 15 44  1  0  0  0  0
 16 17  1  0  0  0  0
 17 18  2  0  0  0  0
 17 25  1  0  0  0  0
 18 19  1  0  0  0  0
 19 20  1  0  0  0  0
 19 23  2  0  0  0  0
 20 21  2  0  0  0  0
 20 45  1  0  0  0  0
 21 22  1  0  0  0  0
 21 46  1  0  0  0  0
 22 23  1  0  0  0  0
 22 47  1  0  0  0  0
 23 24  1  0  0  0  0
 24 25  2  0  0  0  0
 25 48  1  0  0  0  0
M  END
$$$$
