0NL_4E4N_A
 OpenBabel05101902583D

 48 51  0  0  0  0  0  0  0  0999 V2000
    2.8397   49.1281    1.7108 C   0  0  0  0  0  0  0  0  0  0  0  0
    4.1545   49.6287    1.1304 C   0  0  0  0  0  0  0  0  0  0  0  0
    5.2737   48.8116    1.7760 C   0  0  0  0  0  0  0  0  0  0  0  0
    4.2108   49.4354   -0.3912 C   0  0  0  0  0  0  0  0  0  0  0  0
    4.3510   51.0220    1.5170 O   0  0  0  0  0  0  0  0  0  0  0  0
    5.4870   51.7330    1.3720 C   0  0  0  0  0  0  0  0  0  0  0  0
    6.3550   51.4420    0.5600 O   0  0  0  0  0  0  0  0  0  0  0  0
    5.6140   52.8240    2.1640 N   0  0  0  0  0  0  0  0  0  0  0  0
    6.6906   53.8011    1.9430 C   0  0  2  0  0  0  0  0  0  0  0  0
    7.3062   54.1185    3.3266 C   0  0  0  0  0  0  0  0  0  0  0  0
    7.3719   55.6611    3.3917 C   0  0  0  0  0  0  0  0  0  0  0  0
    6.2320   56.1421    2.4631 C   0  0  2  0  0  0  0  0  0  0  0  0
    6.2296   55.1310    1.3042 C   0  0  0  0  0  0  0  0  0  0  0  0
    6.5955   57.5294    2.1268 N   0  0  0  0  0  0  0  0  0  0  0  0
    7.0217   58.0491    0.9272 C   0  0  0  0  0  0  0  0  0  0  0  0
    7.2780   59.3284    1.0730 N   0  0  0  0  0  0  0  0  0  0  0  0
    7.0515   59.6902    2.3631 C   0  0  0  0  0  0  0  0  0  0  0  0
    6.6174   58.5328    3.0520 C   0  0  0  0  0  0  0  0  0  0  0  0
    6.3083   58.6267    4.4247 C   0  0  0  0  0  0  0  0  0  0  0  0
    5.8412   57.6795    5.4563 C   0  0  0  0  0  0  0  0  0  0  0  0
    5.7274   58.3885    6.5871 C   0  0  0  0  0  0  0  0  0  0  0  0
    6.0906   59.7012    6.3670 N   0  0  0  0  0  0  0  0  0  0  0  0
    6.4422   59.8804    5.0538 C   0  0  0  0  0  0  0  0  0  0  0  0
    6.8692   60.9532    4.3619 N   0  0  0  0  0  0  0  0  0  0  0  0
    7.1655   60.8922    3.0818 C   0  0  0  0  0  0  0  0  0  0  0  0
    2.6917   48.1064    1.4296 H   0  0  0  0  0  0  0  0  0  0  0  0
    2.0339   49.7224    1.3332 H   0  0  0  0  0  0  0  0  0  0  0  0
    2.8692   49.2037    2.7778 H   0  0  0  0  0  0  0  0  0  0  0  0
    5.1604   47.7808    1.5125 H   0  0  0  0  0  0  0  0  0  0  0  0
    5.2231   48.9155    2.8397 H   0  0  0  0  0  0  0  0  0  0  0  0
    6.2210   49.1666    1.4275 H   0  0  0  0  0  0  0  0  0  0  0  0
    4.0620   48.4020   -0.6252 H   0  0  0  0  0  0  0  0  0  0  0  0
    5.1665   49.7496   -0.7556 H   0  0  0  0  0  0  0  0  0  0  0  0
    3.4430   50.0199   -0.8536 H   0  0  0  0  0  0  0  0  0  0  0  0
    4.9752   52.9653    2.8997 H   0  0  0  0  0  0  0  0  0  0  0  0
    7.3815   53.3629    1.2536 H   0  0  0  0  0  0  0  0  0  0  0  0
    8.2862   53.6967    3.4077 H   0  0  0  0  0  0  0  0  0  0  0  0
    6.7280   53.7071    4.1274 H   0  0  0  0  0  0  0  0  0  0  0  0
    8.3190   56.0136    3.0403 H   0  0  0  0  0  0  0  0  0  0  0  0
    7.2631   56.0292    4.3904 H   0  0  0  0  0  0  0  0  0  0  0  0
    5.2350   56.1690    2.8505 H   0  0  0  0  0  0  0  0  0  0  0  0
    5.2470   55.0313    0.8926 H   0  0  0  0  0  0  0  0  0  0  0  0
    6.8659   55.4357    0.4997 H   0  0  0  0  0  0  0  0  0  0  0  0
    7.1241   57.5166    0.0493 H   0  0  0  0  0  0  0  0  0  0  0  0
    5.6426   56.6746    5.3315 H   0  0  0  0  0  0  0  0  0  0  0  0
    5.4130   58.0075    7.4931 H   0  0  0  0  0  0  0  0  0  0  0  0
    6.0966   60.4069    7.0533 H   0  0  0  0  0  0  0  0  0  0  0  0
    7.4880   61.7437    2.5959 H   0  0  0  0  0  0  0  0  0  0  0  0
  1  2  1  0  0  0  0
  1 26  1  0  0  0  0
  1 27  1  0  0  0  0
  1 28  1  0  0  0  0
  2  3  1  0  0  0  0
  2  4  1  0  0  0  0
  2  5  1  0  0  0  0
  3 29  1  0  0  0  0
  3 30  1  0  0  0  0
  3 31  1  0  0  0  0
  4 32  1  0  0  0  0
  4 33  1  0  0  0  0
  4 34  1  0  0  0  0
  5  6  1  0  0  0  0
  6  7  2  0  0  0  0
  6  8  1  0  0  0  0
  8  9  1  0  0  0  0
  8 35  1  0  0  0  0
  9 10  1  0  0  0  0
  9 13  1  0  0  0  0
  9 36  1  6  0  0  0
 10 11  1  0  0  0  0
 10 37  1  0  0  0  0
 10 38  1  0  0  0  0
 11 12  1  0  0  0  0
 11 39  1  0  0  0  0
 11 40  1  0  0  0  0
 12 13  1  0  0  0  0
 12 14  1  0  0  0  0
 12 41  1  1  0  0  0
 13 42  1  0  0  0  0
 13 43  1  0  0  0  0
 14 15  1  0  0  0  0
 14 18  1  0  0  0  0
 15 16  2  0  0  0  0
 15 44  1  0  0  0  0
 16 17  1  0  0  0  0
 17 18  2  0  0  0  0
 17 25  1  0  0  0  0
 18 19  1  0  0  0  0
 19 20  1  0  0  0  0
 19 23  2  0  0  0  0
 20 21  2  0  0  0  0
 20 45  1  0  0  0  0
 21 22  1  0  0  0  0
 21 46  1  0  0  0  0
 22 23  1  0  0  0  0
 22 47  1  0  0  0  0
 23 24  1  0  0  0  0
 24 25  2  0  0  0  0
 25 48  1  0  0  0  0
M  END
$$$$
