0NL_4E4N_A
 OpenBabel05091918133D

 48 51  0  0  0  0  0  0  0  0999 V2000
    5.0723   48.7722    0.9459 C   0  0  0  0  0  0  0  0  0  0  0  0
    3.9864   49.8236    0.7685 C   0  0  0  0  0  0  0  0  0  0  0  0
    3.9587   50.1992   -0.7131 C   0  0  0  0  0  0  0  0  0  0  0  0
    2.6068   49.2851    1.1717 C   0  0  0  0  0  0  0  0  0  0  0  0
    4.3510   51.0220    1.5170 O   0  0  0  0  0  0  0  0  0  0  0  0
    5.4870   51.7330    1.3720 C   0  0  0  0  0  0  0  0  0  0  0  0
    6.3550   51.4420    0.5600 O   0  0  0  0  0  0  0  0  0  0  0  0
    5.6140   52.8240    2.1640 N   0  0  0  0  0  0  0  0  0  0  0  0
    4.4831   53.3163    2.9648 C   0  0  2  0  0  0  0  0  0  0  0  0
    4.5923   54.8592    3.0037 C   0  0  0  0  0  0  0  0  0  0  0  0
    4.4284   55.2352    4.4936 C   0  0  0  0  0  0  0  0  0  0  0  0
    4.9245   53.9920    5.2690 C   0  0  2  0  0  0  0  0  0  0  0  0
    4.4538   52.7985    4.4210 C   0  0  0  0  0  0  0  0  0  0  0  0
    4.3205   54.1300    6.6055 N   0  0  0  0  0  0  0  0  0  0  0  0
    3.0510   54.5325    6.9475 C   0  0  0  0  0  0  0  0  0  0  0  0
    2.9382   54.5542    8.2553 N   0  0  0  0  0  0  0  0  0  0  0  0
    4.1209   54.1900    8.8167 C   0  0  0  0  0  0  0  0  0  0  0  0
    5.0210   53.9213    7.7583 C   0  0  0  0  0  0  0  0  0  0  0  0
    6.3373   53.5170    8.0628 C   0  0  0  0  0  0  0  0  0  0  0  0
    7.5289   53.1585    7.2685 C   0  0  0  0  0  0  0  0  0  0  0  0
    8.4875   52.8546    8.1535 C   0  0  0  0  0  0  0  0  0  0  0  0
    8.0125   52.9982    9.4409 N   0  0  0  0  0  0  0  0  0  0  0  0
    6.6996   53.3932    9.4189 C   0  0  0  0  0  0  0  0  0  0  0  0
    5.8137   53.6699   10.3939 N   0  0  0  0  0  0  0  0  0  0  0  0
    4.5809   54.0501   10.1370 C   0  0  0  0  0  0  0  0  0  0  0  0
    4.8087   47.8914    0.3984 H   0  0  0  0  0  0  0  0  0  0  0  0
    5.1694   48.5312    1.9839 H   0  0  0  0  0  0  0  0  0  0  0  0
    6.0022   49.1547    0.5800 H   0  0  0  0  0  0  0  0  0  0  0  0
    3.6937   49.3405   -1.2939 H   0  0  0  0  0  0  0  0  0  0  0  0
    4.9258   50.5467   -1.0110 H   0  0  0  0  0  0  0  0  0  0  0  0
    3.2371   50.9732   -0.8714 H   0  0  0  0  0  0  0  0  0  0  0  0
    2.3842   48.4096    0.5983 H   0  0  0  0  0  0  0  0  0  0  0  0
    1.8638   50.0322    0.9851 H   0  0  0  0  0  0  0  0  0  0  0  0
    2.6107   49.0382    2.2128 H   0  0  0  0  0  0  0  0  0  0  0  0
    6.4775   53.2953    2.2043 H   0  0  0  0  0  0  0  0  0  0  0  0
    3.5866   52.9586    2.5031 H   0  0  0  0  0  0  0  0  0  0  0  0
    3.8178   55.3059    2.4158 H   0  0  0  0  0  0  0  0  0  0  0  0
    5.5212   55.2063    2.6018 H   0  0  0  0  0  0  0  0  0  0  0  0
    3.4027   55.4374    4.7211 H   0  0  0  0  0  0  0  0  0  0  0  0
    4.9756   56.1179    4.7510 H   0  0  0  0  0  0  0  0  0  0  0  0
    5.9771   53.8689    5.4167 H   0  0  0  0  0  0  0  0  0  0  0  0
    5.1167   51.9669    4.5392 H   0  0  0  0  0  0  0  0  0  0  0  0
    3.4822   52.4551    4.7092 H   0  0  0  0  0  0  0  0  0  0  0  0
    2.3035   54.7791    6.2802 H   0  0  0  0  0  0  0  0  0  0  0  0
    7.6075   53.1447    6.2396 H   0  0  0  0  0  0  0  0  0  0  0  0
    9.4442   52.5560    7.9077 H   0  0  0  0  0  0  0  0  0  0  0  0
    8.5398   52.8399   10.2570 H   0  0  0  0  0  0  0  0  0  0  0  0
    3.9393   54.2496   10.9202 H   0  0  0  0  0  0  0  0  0  0  0  0
  1  2  1  0  0  0  0
  1 26  1  0  0  0  0
  1 27  1  0  0  0  0
  1 28  1  0  0  0  0
  2  3  1  0  0  0  0
  2  4  1  0  0  0  0
  2  5  1  0  0  0  0
  3 29  1  0  0  0  0
  3 30  1  0  0  0  0
  3 31  1  0  0  0  0
  4 32  1  0  0  0  0
  4 33  1  0  0  0  0
  4 34  1  0  0  0  0
  5  6  1  0  0  0  0
  6  7  2  0  0  0  0
  6  8  1  0  0  0  0
  8  9  1  0  0  0  0
  8 35  1  0  0  0  0
  9 10  1  0  0  0  0
  9 13  1  0  0  0  0
  9 36  1  6  0  0  0
 10 11  1  0  0  0  0
 10 37  1  0  0  0  0
 10 38  1  0  0  0  0
 11 12  1  0  0  0  0
 11 39  1  0  0  0  0
 11 40  1  0  0  0  0
 12 13  1  0  0  0  0
 12 14  1  0  0  0  0
 12 41  1  1  0  0  0
 13 42  1  0  0  0  0
 13 43  1  0  0  0  0
 14 15  1  0  0  0  0
 14 18  1  0  0  0  0
 15 16  2  0  0  0  0
 15 44  1  0  0  0  0
 16 17  1  0  0  0  0
 17 18  2  0  0  0  0
 17 25  1  0  0  0  0
 18 19  1  0  0  0  0
 19 20  1  0  0  0  0
 19 23  2  0  0  0  0
 20 21  2  0  0  0  0
 20 45  1  0  0  0  0
 21 22  1  0  0  0  0
 21 46  1  0  0  0  0
 22 23  1  0  0  0  0
 22 47  1  0  0  0  0
 23 24  1  0  0  0  0
 24 25  2  0  0  0  0
 25 48  1  0  0  0  0
M  END
$$$$
