48
0NL_4E4N_A
C          3.79480       49.94580       -0.59030
C          4.05750       49.73550        0.89390
C          2.76140       49.21170        1.51250
C          5.17300       48.70830        1.13070
O          4.35100       51.02200        1.51700
C          5.48700       51.73300        1.37200
O          6.35500       51.44200        0.56000
N          5.61400       52.82400        2.16400
C          4.63170       53.11440        3.21920
C          5.21770       54.25680        4.08260
C          5.05390       53.77970        5.54330
C          5.06500       52.23530        5.45540
C          4.31650       51.92060        4.14920
N          4.42340       51.79350        6.70560
C          3.90620       52.55000        7.73080
N          3.46360       51.75600        8.67790
C          3.68790       50.46310        8.32480
C          4.31380       50.47880        7.05570
C          4.66110       49.25520        6.44650
C          5.30430       48.86780        5.17550
C          5.34960       47.52900        5.17510
N          4.80040       47.03180        6.33900
C          4.36280       48.06100        7.13240
N          3.77610       48.09340        8.34350
C          3.44370       49.22070        8.93410
H          3.57910       49.00460       -1.05120
H          4.66050       50.37710       -1.04810
H          2.96020       50.60370       -0.71500
H          2.51510       48.26590        1.07710
H          1.97020       49.90730        1.32530
H          2.89160       49.09520        2.56810
H          4.91380       47.78460        0.65690
H          5.29360       48.54850        2.18180
H          6.08950       49.07570        0.71840
H          6.37630       53.43270        2.03120
H          3.71110       53.36710        2.73610
H          4.67640       55.16560        3.92100
H          6.23940       54.46080        3.83890
H          4.12860       54.12770        5.95250
H          5.82720       54.15450        6.18080
H          6.00850       51.73400        5.39820
H          4.67100       51.00570        3.72230
H          3.26540       51.79520        4.30500
H          3.87130       53.58110        7.75220
H          5.64920       49.50050        4.43670
H          5.73930       46.95220        4.41340
H          4.73270       46.07650        6.56690
H          2.99480       49.19220        9.86290
