0NL_4E4N_A
 OpenBabel05091900093D

 48 51  0  0  0  0  0  0  0  0999 V2000
    3.7948   49.9458   -0.5903 C   0  0  0  0  0  0  0  0  0  0  0  0
    4.0575   49.7355    0.8939 C   0  0  0  0  0  0  0  0  0  0  0  0
    2.7614   49.2117    1.5125 C   0  0  0  0  0  0  0  0  0  0  0  0
    5.1730   48.7083    1.1307 C   0  0  0  0  0  0  0  0  0  0  0  0
    4.3510   51.0220    1.5170 O   0  0  0  0  0  0  0  0  0  0  0  0
    5.4870   51.7330    1.3720 C   0  0  0  0  0  0  0  0  0  0  0  0
    6.3550   51.4420    0.5600 O   0  0  0  0  0  0  0  0  0  0  0  0
    5.6140   52.8240    2.1640 N   0  0  0  0  0  0  0  0  0  0  0  0
    4.6317   53.1144    3.2192 C   0  0  2  0  0  0  0  0  0  0  0  0
    5.2177   54.2568    4.0826 C   0  0  0  0  0  0  0  0  0  0  0  0
    5.0539   53.7797    5.5433 C   0  0  0  0  0  0  0  0  0  0  0  0
    5.0650   52.2353    5.4554 C   0  0  2  0  0  0  0  0  0  0  0  0
    4.3165   51.9206    4.1492 C   0  0  0  0  0  0  0  0  0  0  0  0
    4.4234   51.7935    6.7056 N   0  0  0  0  0  0  0  0  0  0  0  0
    3.9062   52.5500    7.7308 C   0  0  0  0  0  0  0  0  0  0  0  0
    3.4636   51.7560    8.6779 N   0  0  0  0  0  0  0  0  0  0  0  0
    3.6879   50.4631    8.3248 C   0  0  0  0  0  0  0  0  0  0  0  0
    4.3138   50.4788    7.0557 C   0  0  0  0  0  0  0  0  0  0  0  0
    4.6611   49.2552    6.4465 C   0  0  0  0  0  0  0  0  0  0  0  0
    5.3043   48.8678    5.1755 C   0  0  0  0  0  0  0  0  0  0  0  0
    5.3496   47.5290    5.1751 C   0  0  0  0  0  0  0  0  0  0  0  0
    4.8004   47.0318    6.3390 N   0  0  0  0  0  0  0  0  0  0  0  0
    4.3628   48.0610    7.1324 C   0  0  0  0  0  0  0  0  0  0  0  0
    3.7761   48.0934    8.3435 N   0  0  0  0  0  0  0  0  0  0  0  0
    3.4437   49.2207    8.9341 C   0  0  0  0  0  0  0  0  0  0  0  0
    3.5791   49.0046   -1.0512 H   0  0  0  0  0  0  0  0  0  0  0  0
    4.6605   50.3771   -1.0481 H   0  0  0  0  0  0  0  0  0  0  0  0
    2.9602   50.6037   -0.7150 H   0  0  0  0  0  0  0  0  0  0  0  0
    2.5151   48.2659    1.0771 H   0  0  0  0  0  0  0  0  0  0  0  0
    1.9702   49.9073    1.3253 H   0  0  0  0  0  0  0  0  0  0  0  0
    2.8916   49.0952    2.5681 H   0  0  0  0  0  0  0  0  0  0  0  0
    4.9138   47.7846    0.6569 H   0  0  0  0  0  0  0  0  0  0  0  0
    5.2936   48.5485    2.1818 H   0  0  0  0  0  0  0  0  0  0  0  0
    6.0895   49.0757    0.7184 H   0  0  0  0  0  0  0  0  0  0  0  0
    6.3763   53.4327    2.0312 H   0  0  0  0  0  0  0  0  0  0  0  0
    3.7111   53.3671    2.7361 H   0  0  0  0  0  0  0  0  0  0  0  0
    4.6764   55.1656    3.9210 H   0  0  0  0  0  0  0  0  0  0  0  0
    6.2394   54.4608    3.8389 H   0  0  0  0  0  0  0  0  0  0  0  0
    4.1286   54.1277    5.9525 H   0  0  0  0  0  0  0  0  0  0  0  0
    5.8272   54.1545    6.1808 H   0  0  0  0  0  0  0  0  0  0  0  0
    6.0085   51.7340    5.3982 H   0  0  0  0  0  0  0  0  0  0  0  0
    4.6710   51.0057    3.7223 H   0  0  0  0  0  0  0  0  0  0  0  0
    3.2654   51.7952    4.3050 H   0  0  0  0  0  0  0  0  0  0  0  0
    3.8713   53.5811    7.7522 H   0  0  0  0  0  0  0  0  0  0  0  0
    5.6492   49.5005    4.4367 H   0  0  0  0  0  0  0  0  0  0  0  0
    5.7393   46.9522    4.4134 H   0  0  0  0  0  0  0  0  0  0  0  0
    4.7327   46.0765    6.5669 H   0  0  0  0  0  0  0  0  0  0  0  0
    2.9948   49.1922    9.8629 H   0  0  0  0  0  0  0  0  0  0  0  0
  1  2  1  0  0  0  0
  1 26  1  0  0  0  0
  1 27  1  0  0  0  0
  1 28  1  0  0  0  0
  2  3  1  0  0  0  0
  2  4  1  0  0  0  0
  2  5  1  0  0  0  0
  3 29  1  0  0  0  0
  3 30  1  0  0  0  0
  3 31  1  0  0  0  0
  4 32  1  0  0  0  0
  4 33  1  0  0  0  0
  4 34  1  0  0  0  0
  5  6  1  0  0  0  0
  6  7  2  0  0  0  0
  6  8  1  0  0  0  0
  8  9  1  0  0  0  0
  8 35  1  0  0  0  0
  9 10  1  0  0  0  0
  9 13  1  0  0  0  0
  9 36  1  6  0  0  0
 10 11  1  0  0  0  0
 10 37  1  0  0  0  0
 10 38  1  0  0  0  0
 11 12  1  0  0  0  0
 11 39  1  0  0  0  0
 11 40  1  0  0  0  0
 12 13  1  0  0  0  0
 12 14  1  0  0  0  0
 12 41  1  6  0  0  0
 13 42  1  0  0  0  0
 13 43  1  0  0  0  0
 14 15  1  0  0  0  0
 14 18  1  0  0  0  0
 15 16  2  0  0  0  0
 15 44  1  0  0  0  0
 16 17  1  0  0  0  0
 17 18  2  0  0  0  0
 17 25  1  0  0  0  0
 18 19  1  0  0  0  0
 19 20  1  0  0  0  0
 19 23  2  0  0  0  0
 20 21  2  0  0  0  0
 20 45  1  0  0  0  0
 21 22  1  0  0  0  0
 21 46  1  0  0  0  0
 22 23  1  0  0  0  0
 22 47  1  0  0  0  0
 23 24  1  0  0  0  0
 24 25  2  0  0  0  0
 25 48  1  0  0  0  0
M  END
$$$$
