0NL_4E4N_A
 OpenBabel05201914073D

 48 51  0  0  0  0  0  0  0  0999 V2000
    4.3873   49.6599   -0.4958 C   0  0  0  0  0  0  0  0  0  0  0  0
    4.1059   49.6797    0.9997 C   0  0  0  0  0  0  0  0  0  0  0  0
    2.6177   49.3823    1.1835 C   0  0  0  0  0  0  0  0  0  0  0  0
    4.9224   48.6135    1.7428 C   0  0  0  0  0  0  0  0  0  0  0  0
    4.3510   51.0220    1.5170 O   0  0  0  0  0  0  0  0  0  0  0  0
    5.4870   51.7330    1.3720 C   0  0  0  0  0  0  0  0  0  0  0  0
    6.3550   51.4420    0.5600 O   0  0  0  0  0  0  0  0  0  0  0  0
    5.6140   52.8240    2.1640 N   0  0  0  0  0  0  0  0  0  0  0  0
    6.8425   53.6323    2.1513 C   0  0  2  0  0  0  0  0  0  0  0  0
    7.0364   54.1856    3.5831 C   0  0  0  0  0  0  0  0  0  0  0  0
    7.3148   55.6941    3.3956 C   0  0  0  0  0  0  0  0  0  0  0  0
    6.6100   56.0613    2.0684 C   0  0  2  0  0  0  0  0  0  0  0  0
    6.8142   54.8282    1.1723 C   0  0  0  0  0  0  0  0  0  0  0  0
    7.2690   57.3061    1.6370 N   0  0  0  0  0  0  0  0  0  0  0  0
    8.6076   57.5619    1.4546 C   0  0  0  0  0  0  0  0  0  0  0  0
    8.7676   58.8166    1.1030 N   0  0  0  0  0  0  0  0  0  0  0  0
    7.5565   59.4315    1.0603 C   0  0  0  0  0  0  0  0  0  0  0  0
    6.5841   58.4649    1.4108 C   0  0  0  0  0  0  0  0  0  0  0  0
    5.2251   58.8398    1.4452 C   0  0  0  0  0  0  0  0  0  0  0  0
    3.9588   58.1463    1.7533 C   0  0  0  0  0  0  0  0  0  0  0  0
    2.9895   59.0585    1.6023 C   0  0  0  0  0  0  0  0  0  0  0  0
    3.5297   60.2737    1.2348 N   0  0  0  0  0  0  0  0  0  0  0  0
    4.8923   60.1703    1.1220 C   0  0  0  0  0  0  0  0  0  0  0  0
    5.8516   61.0599    0.8048 N   0  0  0  0  0  0  0  0  0  0  0  0
    7.1261   60.7365    0.7669 C   0  0  0  0  0  0  0  0  0  0  0  0
    4.2087   48.6771   -0.8794 H   0  0  0  0  0  0  0  0  0  0  0  0
    5.4076   49.9310   -0.6704 H   0  0  0  0  0  0  0  0  0  0  0  0
    3.7434   50.3577   -0.9892 H   0  0  0  0  0  0  0  0  0  0  0  0
    2.4015   48.4019    0.8134 H   0  0  0  0  0  0  0  0  0  0  0  0
    2.0405   50.1029    0.6427 H   0  0  0  0  0  0  0  0  0  0  0  0
    2.3694   49.4338    2.2230 H   0  0  0  0  0  0  0  0  0  0  0  0
    4.7101   47.6496    1.3297 H   0  0  0  0  0  0  0  0  0  0  0  0
    4.6606   48.6226    2.7802 H   0  0  0  0  0  0  0  0  0  0  0  0
    5.9659   48.8251    1.6365 H   0  0  0  0  0  0  0  0  0  0  0  0
    4.8719   53.0802    2.7580 H   0  0  0  0  0  0  0  0  0  0  0  0
    7.6381   52.9968    1.8227 H   0  0  0  0  0  0  0  0  0  0  0  0
    7.8650   53.7071    4.0620 H   0  0  0  0  0  0  0  0  0  0  0  0
    6.1810   54.0089    4.2012 H   0  0  0  0  0  0  0  0  0  0  0  0
    8.3666   55.8781    3.3278 H   0  0  0  0  0  0  0  0  0  0  0  0
    6.9575   56.2771    4.2186 H   0  0  0  0  0  0  0  0  0  0  0  0
    5.5585   56.2583    2.0863 H   0  0  0  0  0  0  0  0  0  0  0  0
    6.0062   54.7284    0.4780 H   0  0  0  0  0  0  0  0  0  0  0  0
    7.7087   54.8952    0.5889 H   0  0  0  0  0  0  0  0  0  0  0  0
    9.3680   56.8748    1.5752 H   0  0  0  0  0  0  0  0  0  0  0  0
    3.8436   57.1586    2.0292 H   0  0  0  0  0  0  0  0  0  0  0  0
    1.9830   58.8782    1.7410 H   0  0  0  0  0  0  0  0  0  0  0  0
    3.0119   61.0958    1.0765 H   0  0  0  0  0  0  0  0  0  0  0  0
    7.8232   61.4551    0.5169 H   0  0  0  0  0  0  0  0  0  0  0  0
  1  2  1  0  0  0  0
  1 26  1  0  0  0  0
  1 27  1  0  0  0  0
  1 28  1  0  0  0  0
  2  3  1  0  0  0  0
  2  4  1  0  0  0  0
  2  5  1  0  0  0  0
  3 29  1  0  0  0  0
  3 30  1  0  0  0  0
  3 31  1  0  0  0  0
  4 32  1  0  0  0  0
  4 33  1  0  0  0  0
  4 34  1  0  0  0  0
  5  6  1  0  0  0  0
  6  7  2  0  0  0  0
  6  8  1  0  0  0  0
  8  9  1  0  0  0  0
  8 35  1  0  0  0  0
  9 10  1  0  0  0  0
  9 13  1  0  0  0  0
  9 36  1  6  0  0  0
 10 11  1  0  0  0  0
 10 37  1  0  0  0  0
 10 38  1  0  0  0  0
 11 12  1  0  0  0  0
 11 39  1  0  0  0  0
 11 40  1  0  0  0  0
 12 13  1  0  0  0  0
 12 14  1  0  0  0  0
 12 41  1  1  0  0  0
 13 42  1  0  0  0  0
 13 43  1  0  0  0  0
 14 15  1  0  0  0  0
 14 18  1  0  0  0  0
 15 16  2  0  0  0  0
 15 44  1  0  0  0  0
 16 17  1  0  0  0  0
 17 18  2  0  0  0  0
 17 25  1  0  0  0  0
 18 19  1  0  0  0  0
 19 20  1  0  0  0  0
 19 23  2  0  0  0  0
 20 21  2  0  0  0  0
 20 45  1  0  0  0  0
 21 22  1  0  0  0  0
 21 46  1  0  0  0  0
 22 23  1  0  0  0  0
 22 47  1  0  0  0  0
 23 24  1  0  0  0  0
 24 25  2  0  0  0  0
 25 48  1  0  0  0  0
M  END
$$$$
