48
0NL_4E4N_A
C          5.07230       48.77220        0.94590
C          3.98640       49.82360        0.76850
C          3.95870       50.19920       -0.71310
C          2.60680       49.28510        1.17170
O          4.35100       51.02200        1.51700
C          5.48700       51.73300        1.37200
O          6.35500       51.44200        0.56000
N          5.61400       52.82400        2.16400
C          4.48310       53.31630        2.96480
C          4.59230       54.85920        3.00370
C          4.42840       55.23520        4.49360
C          4.92450       53.99200        5.26900
C          4.45380       52.79850        4.42100
N          4.32050       54.13000        6.60550
C          3.05100       54.53250        6.94750
N          2.93820       54.55420        8.25530
C          4.12090       54.19000        8.81670
C          5.02100       53.92130        7.75830
C          6.33730       53.51700        8.06280
C          7.52890       53.15850        7.26850
C          8.48750       52.85460        8.15350
N          8.01250       52.99820        9.44090
C          6.69960       53.39320        9.41890
N          5.81370       53.66990       10.39390
C          4.58090       54.05010       10.13700
H          4.80870       47.89140        0.39840
H          5.16940       48.53120        1.98390
H          6.00220       49.15470        0.58000
H          3.69370       49.34050       -1.29390
H          4.92580       50.54670       -1.01100
H          3.23710       50.97320       -0.87140
H          2.38420       48.40960        0.59830
H          1.86380       50.03220        0.98510
H          2.61070       49.03820        2.21280
H          6.47750       53.29530        2.20430
H          3.58660       52.95860        2.50310
H          3.81780       55.30590        2.41580
H          5.52120       55.20630        2.60180
H          3.40270       55.43740        4.72110
H          4.97560       56.11790        4.75100
H          5.97710       53.86890        5.41670
H          5.11670       51.96690        4.53920
H          3.48220       52.45510        4.70920
H          2.30350       54.77910        6.28020
H          7.60750       53.14470        6.23960
H          9.44420       52.55600        7.90770
H          8.53980       52.83990       10.25700
H          3.93930       54.24960       10.92020
