0NL_4E4N_A
 OpenBabel05201914303D

 48 51  0  0  0  0  0  0  0  0999 V2000
    2.4606   49.5772    1.0197 C   0  0  0  0  0  0  0  0  0  0  0  0
    3.8777   49.9681    0.6256 C   0  0  0  0  0  0  0  0  0  0  0  0
    4.7640   48.7434    0.8526 C   0  0  0  0  0  0  0  0  0  0  0  0
    3.9614   50.3766   -0.8515 C   0  0  0  0  0  0  0  0  0  0  0  0
    4.3510   51.0220    1.5170 O   0  0  0  0  0  0  0  0  0  0  0  0
    5.4870   51.7330    1.3720 C   0  0  0  0  0  0  0  0  0  0  0  0
    6.3550   51.4420    0.5600 O   0  0  0  0  0  0  0  0  0  0  0  0
    5.6140   52.8240    2.1640 N   0  0  0  0  0  0  0  0  0  0  0  0
    4.4473   53.4115    2.8394 C   0  0  2  0  0  0  0  0  0  0  0  0
    4.6149   54.9485    2.7800 C   0  0  0  0  0  0  0  0  0  0  0  0
    4.3559   55.4361    4.2234 C   0  0  0  0  0  0  0  0  0  0  0  0
    4.7428   54.2354    5.1186 C   0  0  2  0  0  0  0  0  0  0  0  0
    4.2891   53.0010    4.3213 C   0  0  0  0  0  0  0  0  0  0  0  0
    4.0471   54.4899    6.3919 N   0  0  0  0  0  0  0  0  0  0  0  0
    2.9359   53.8703    6.9134 C   0  0  0  0  0  0  0  0  0  0  0  0
    2.6200   54.4322    8.0571 N   0  0  0  0  0  0  0  0  0  0  0  0
    3.4892   55.4434    8.3187 C   0  0  0  0  0  0  0  0  0  0  0  0
    4.4097   55.4920    7.2449 C   0  0  0  0  0  0  0  0  0  0  0  0
    5.4335   56.4617    7.2619 C   0  0  0  0  0  0  0  0  0  0  0  0
    6.5457   56.8207    6.3600 C   0  0  0  0  0  0  0  0  0  0  0  0
    7.1803   57.8463    6.9431 C   0  0  0  0  0  0  0  0  0  0  0  0
    6.5629   58.1769    8.1317 N   0  0  0  0  0  0  0  0  0  0  0  0
    5.4979   57.3437    8.3588 C   0  0  0  0  0  0  0  0  0  0  0  0
    4.5942   57.2686    9.3538 N   0  0  0  0  0  0  0  0  0  0  0  0
    3.6290   56.3750    9.3613 C   0  0  0  0  0  0  0  0  0  0  0  0
    2.1096   48.8043    0.3683 H   0  0  0  0  0  0  0  0  0  0  0  0
    1.8198   50.4303    0.9388 H   0  0  0  0  0  0  0  0  0  0  0  0
    2.4563   49.2223    2.0291 H   0  0  0  0  0  0  0  0  0  0  0  0
    4.4440   47.9479    0.2125 H   0  0  0  0  0  0  0  0  0  0  0  0
    4.6877   48.4323    1.8735 H   0  0  0  0  0  0  0  0  0  0  0  0
    5.7805   48.9927    0.6307 H   0  0  0  0  0  0  0  0  0  0  0  0
    3.6049   49.5749   -1.4640 H   0  0  0  0  0  0  0  0  0  0  0  0
    4.9782   50.5938   -1.1044 H   0  0  0  0  0  0  0  0  0  0  0  0
    3.3595   51.2458   -1.0158 H   0  0  0  0  0  0  0  0  0  0  0  0
    6.5018   53.2305    2.2896 H   0  0  0  0  0  0  0  0  0  0  0  0
    3.5740   53.0528    2.3359 H   0  0  0  0  0  0  0  0  0  0  0  0
    3.9048   55.3783    2.1048 H   0  0  0  0  0  0  0  0  0  0  0  0
    5.5843   55.2334    2.4278 H   0  0  0  0  0  0  0  0  0  0  0  0
    3.3249   55.6895    4.3567 H   0  0  0  0  0  0  0  0  0  0  0  0
    4.9173   56.3155    4.4605 H   0  0  0  0  0  0  0  0  0  0  0  0
    5.7757   54.0868    5.3551 H   0  0  0  0  0  0  0  0  0  0  0  0
    4.9075   52.1576    4.5473 H   0  0  0  0  0  0  0  0  0  0  0  0
    3.2858   52.7131    4.5568 H   0  0  0  0  0  0  0  0  0  0  0  0
    2.4292   53.0858    6.4743 H   0  0  0  0  0  0  0  0  0  0  0  0
    6.7858   56.3724    5.4620 H   0  0  0  0  0  0  0  0  0  0  0  0
    8.0118   58.3211    6.5583 H   0  0  0  0  0  0  0  0  0  0  0  0
    6.8460   58.9056    8.7302 H   0  0  0  0  0  0  0  0  0  0  0  0
    2.9614   56.3578   10.1480 H   0  0  0  0  0  0  0  0  0  0  0  0
  1  2  1  0  0  0  0
  1 26  1  0  0  0  0
  1 27  1  0  0  0  0
  1 28  1  0  0  0  0
  2  3  1  0  0  0  0
  2  4  1  0  0  0  0
  2  5  1  0  0  0  0
  3 29  1  0  0  0  0
  3 30  1  0  0  0  0
  3 31  1  0  0  0  0
  4 32  1  0  0  0  0
  4 33  1  0  0  0  0
  4 34  1  0  0  0  0
  5  6  1  0  0  0  0
  6  7  2  0  0  0  0
  6  8  1  0  0  0  0
  8  9  1  0  0  0  0
  8 35  1  0  0  0  0
  9 10  1  0  0  0  0
  9 13  1  0  0  0  0
  9 36  1  6  0  0  0
 10 11  1  0  0  0  0
 10 37  1  0  0  0  0
 10 38  1  0  0  0  0
 11 12  1  0  0  0  0
 11 39  1  0  0  0  0
 11 40  1  0  0  0  0
 12 13  1  0  0  0  0
 12 14  1  0  0  0  0
 12 41  1  1  0  0  0
 13 42  1  0  0  0  0
 13 43  1  0  0  0  0
 14 15  1  0  0  0  0
 14 18  1  0  0  0  0
 15 16  2  0  0  0  0
 15 44  1  0  0  0  0
 16 17  1  0  0  0  0
 17 18  2  0  0  0  0
 17 25  1  0  0  0  0
 18 19  1  0  0  0  0
 19 20  1  0  0  0  0
 19 23  2  0  0  0  0
 20 21  2  0  0  0  0
 20 45  1  0  0  0  0
 21 22  1  0  0  0  0
 21 46  1  0  0  0  0
 22 23  1  0  0  0  0
 22 47  1  0  0  0  0
 23 24  1  0  0  0  0
 24 25  2  0  0  0  0
 25 48  1  0  0  0  0
M  END
$$$$
