omegacsd_HEHVOF
 OpenBabel05061919523D

 51 53  0  0  1  0  0  0  0  0999 V2000
   19.9581   19.2687    4.0178 N   0  0  0  0  0  0  0  0  0  0  0  0
   19.1156   18.9161    3.0992 C   0  0  0  0  0  0  0  0  0  0  0  0
   19.4824   18.1665    1.9820 N   0  0  0  0  0  0  0  0  0  0  0  0
   18.4191   17.5133    1.1990 N   0  0  0  0  0  0  0  0  0  0  0  0
   17.8820   18.5704    0.3885 C   0  0  0  0  0  0  0  0  0  0  0  0
   18.4490   19.6094    0.0191 O   0  0  0  0  0  0  0  0  0  0  0  0
   16.5775   18.2050   -0.3106 C   0  0  0  0  0  0  0  0  0  0  0  0
   18.6290   16.3442    0.4905 C   0  0  0  0  0  0  0  0  0  0  0  0
   18.4390   16.1652   -0.7093 O   0  0  0  0  0  0  0  0  0  0  0  0
   18.9853   15.1454    1.4580 C   0  0  2  0  0  0  0  0  0  0  0  0
   19.6684   14.0508    0.6801 C   0  0  0  0  0  0  0  0  0  0  0  0
   17.8663   14.7107    2.4015 C   0  0  0  0  0  0  0  0  0  0  0  0
   18.1030   14.4178    3.7490 C   0  0  0  0  0  0  0  0  0  0  0  0
   17.0695   14.0674    4.6113 C   0  0  0  0  0  0  0  0  0  0  0  0
   15.7765   13.9980    4.1419 C   0  0  0  0  0  0  0  0  0  0  0  0
   15.5206   14.2563    2.8138 C   0  0  0  0  0  0  0  0  0  0  0  0
   16.5578   14.5940    1.9581 C   0  0  0  0  0  0  0  0  0  0  0  0
   20.7532   17.5689    1.9242 C   0  0  0  0  0  0  0  0  0  0  0  0
   21.1594   16.9238    0.9584 O   0  0  0  0  0  0  0  0  0  0  0  0
   21.6467   17.7953    3.0727 C   0  0  0  0  0  0  0  0  0  0  0  0
   22.8771   17.1526    3.1841 C   0  0  0  0  0  0  0  0  0  0  0  0
   23.6638   17.3607    4.3003 C   0  0  0  0  0  0  0  0  0  0  0  0
   23.2348   18.2209    5.2895 C   0  0  0  0  0  0  0  0  0  0  0  0
   22.0173   18.8699    5.1655 C   0  0  0  0  0  0  0  0  0  0  0  0
   21.2040   18.6577    4.0612 C   0  0  0  0  0  0  0  0  0  0  0  0
   17.7639   19.6427    3.0620 C   0  0  0  0  0  0  0  0  0  0  0  0
   16.6589   18.7661    3.5840 C   0  0  0  0  0  0  0  0  0  0  0  0
   17.7961   20.9410    3.8429 C   0  0  0  0  0  0  0  0  0  0  0  0
   16.2759   17.2032   -0.0368 H   0  0  0  0  0  0  0  0  0  0  0  0
   16.6949   18.2485   -1.3948 H   0  0  0  0  0  0  0  0  0  0  0  0
   15.7913   18.8966   -0.0236 H   0  0  0  0  0  0  0  0  0  0  0  0
   19.7043   15.5093    2.1672 H   0  0  0  0  0  0  0  0  0  0  0  0
   19.0135   13.6255   -0.0687 H   0  0  0  0  0  0  0  0  0  0  0  0
   20.0046   13.2647    1.3467 H   0  0  0  0  0  0  0  0  0  0  0  0
   20.5458   14.4610    0.1727 H   0  0  0  0  0  0  0  0  0  0  0  0
   19.1029   14.4605    4.1433 H   0  0  0  0  0  0  0  0  0  0  0  0
   17.2724   13.8565    5.6443 H   0  0  0  0  0  0  0  0  0  0  0  0
   14.9736   13.7422    4.8059 H   0  0  0  0  0  0  0  0  0  0  0  0
   14.5156   14.1973    2.4421 H   0  0  0  0  0  0  0  0  0  0  0  0
   16.3414   14.7870    0.9270 H   0  0  0  0  0  0  0  0  0  0  0  0
   23.2151   16.4926    2.4085 H   0  0  0  0  0  0  0  0  0  0  0  0
   24.6058   16.8561    4.3980 H   0  0  0  0  0  0  0  0  0  0  0  0
   23.8463   18.3876    6.1559 H   0  0  0  0  0  0  0  0  0  0  0  0
   21.6957   19.5432    5.9371 H   0  0  0  0  0  0  0  0  0  0  0  0
   17.5423   19.9125    2.0298 H   0  0  0  0  0  0  0  0  0  0  0  0
   16.8583   18.5237    4.6216 H   0  0  0  0  0  0  0  0  0  0  0  0
   16.6061   17.8481    3.0132 H   0  0  0  0  0  0  0  0  0  0  0  0
   15.7004   19.2735    3.5198 H   0  0  0  0  0  0  0  0  0  0  0  0
   18.0042   20.7260    4.8883 H   0  0  0  0  0  0  0  0  0  0  0  0
   16.8384   21.4564    3.7918 H   0  0  0  0  0  0  0  0  0  0  0  0
   18.5688   21.6131    3.4736 H   0  0  0  0  0  0  0  0  0  0  0  0
  1  2  2  0  0  0  0
  1 25  1  0  0  0  0
  2  3  1  0  0  0  0
  2 26  1  0  0  0  0
  3 18  1  0  0  0  0
  3  4  1  0  0  0  0
  4  8  1  0  0  0  0
  4  5  1  0  0  0  0
  5  7  1  0  0  0  0
  5  6  2  0  0  0  0
  7 29  1  0  0  0  0
  7 30  1  0  0  0  0
  7 31  1  0  0  0  0
  8  9  2  0  0  0  0
 10 11  1  0  0  0  0
 10 12  1  0  0  0  0
 10  8  1  0  0  0  0
 10 32  1  1  0  0  0
 11 33  1  0  0  0  0
 11 34  1  0  0  0  0
 11 35  1  0  0  0  0
 12 13  2  0  0  0  0
 12 17  1  0  0  0  0
 13 14  1  0  0  0  0
 13 36  1  0  0  0  0
 14 15  2  0  0  0  0
 14 37  1  0  0  0  0
 15 16  1  0  0  0  0
 15 38  1  0  0  0  0
 16 17  2  0  0  0  0
 16 39  1  0  0  0  0
 17 40  1  0  0  0  0
 18 20  1  0  0  0  0
 18 19  2  0  0  0  0
 20 21  1  0  0  0  0
 20 25  2  0  0  0  0
 21 22  2  0  0  0  0
 21 41  1  0  0  0  0
 22 23  1  0  0  0  0
 22 42  1  0  0  0  0
 23 24  2  0  0  0  0
 23 43  1  0  0  0  0
 24 25  1  0  0  0  0
 24 44  1  0  0  0  0
 26 28  1  0  0  0  0
 26 27  1  0  0  0  0
 26 45  1  0  0  0  0
 27 46  1  0  0  0  0
 27 47  1  0  0  0  0
 27 48  1  0  0  0  0
 28 49  1  0  0  0  0
 28 50  1  0  0  0  0
 28 51  1  0  0  0  0
M  END
$$$$
