omegacsd_HEHVOF
 OpenBabel05021922323D

 51 53  0  0  1  0  0  0  0  0999 V2000
   11.2750    9.2756   -0.7503 N   0  0  0  0  0  0  0  0  0  0  0  0
   11.1866    7.9975   -0.9369 C   0  0  0  0  0  0  0  0  0  0  0  0
   12.1589    7.2843   -1.6276 N   0  0  0  0  0  0  0  0  0  0  0  0
   12.0167    5.8656   -1.8283 N   0  0  0  0  0  0  0  0  0  0  0  0
   12.4072    5.0577   -0.7734 C   0  0  0  0  0  0  0  0  0  0  0  0
   12.2647    5.3788    0.4060 O   0  0  0  0  0  0  0  0  0  0  0  0
   12.9956    3.7075   -1.0764 C   0  0  0  0  0  0  0  0  0  0  0  0
   11.2375    5.3343   -2.8356 C   0  0  0  0  0  0  0  0  0  0  0  0
   10.5868    4.3042   -2.5926 O   0  0  0  0  0  0  0  0  0  0  0  0
   11.0657    6.0082   -4.1916 C   0  0  2  0  0  0  0  0  0  0  0  0
   12.2993    6.7585   -4.5835 C   0  0  0  0  0  0  0  0  0  0  0  0
    9.7612    6.7158   -4.4521 C   0  0  0  0  0  0  0  0  0  0  0  0
    8.5782    6.0129   -4.6787 C   0  0  0  0  0  0  0  0  0  0  0  0
    7.3753    6.6763   -4.8669 C   0  0  0  0  0  0  0  0  0  0  0  0
    7.3280    8.0513   -4.7954 C   0  0  0  0  0  0  0  0  0  0  0  0
    8.4846    8.7615   -4.5646 C   0  0  0  0  0  0  0  0  0  0  0  0
    9.6848    8.0959   -4.3974 C   0  0  0  0  0  0  0  0  0  0  0  0
   13.1798    7.9415   -2.3396 C   0  0  0  0  0  0  0  0  0  0  0  0
   13.9249    7.4309   -3.1886 O   0  0  0  0  0  0  0  0  0  0  0  0
   13.3276    9.3667   -2.0752 C   0  0  0  0  0  0  0  0  0  0  0  0
   14.4297   10.0745   -2.5402 C   0  0  0  0  0  0  0  0  0  0  0  0
   14.6166   11.3831   -2.1455 C   0  0  0  0  0  0  0  0  0  0  0  0
   13.6957   11.9862   -1.3144 C   0  0  0  0  0  0  0  0  0  0  0  0
   12.5891   11.2792   -0.8742 C   0  0  0  0  0  0  0  0  0  0  0  0
   12.3942    9.9569   -1.2413 C   0  0  0  0  0  0  0  0  0  0  0  0
   10.0002    7.2573   -0.3658 C   0  0  0  0  0  0  0  0  0  0  0  0
   10.0766    7.1511    1.1581 C   0  0  0  0  0  0  0  0  0  0  0  0
    8.7071    7.9601   -0.7146 C   0  0  0  0  0  0  0  0  0  0  0  0
   13.1419    3.5896   -2.1386 H   0  0  0  0  0  0  0  0  0  0  0  0
   12.3259    2.9363   -0.7150 H   0  0  0  0  0  0  0  0  0  0  0  0
   13.9562    3.5985   -0.5754 H   0  0  0  0  0  0  0  0  0  0  0  0
   11.0368    5.1897   -4.8891 H   0  0  0  0  0  0  0  0  0  0  0  0
   12.3796    7.6292   -3.9780 H   0  0  0  0  0  0  0  0  0  0  0  0
   12.2548    7.1566   -5.5762 H   0  0  0  0  0  0  0  0  0  0  0  0
   13.1974    6.1277   -4.5033 H   0  0  0  0  0  0  0  0  0  0  0  0
    8.5933    4.9397   -4.7491 H   0  0  0  0  0  0  0  0  0  0  0  0
    6.4774    6.1226   -5.0567 H   0  0  0  0  0  0  0  0  0  0  0  0
    6.3963    8.5659   -4.9194 H   0  0  0  0  0  0  0  0  0  0  0  0
    8.4535    9.8313   -4.5116 H   0  0  0  0  0  0  0  0  0  0  0  0
   10.5741    8.6633   -4.2185 H   0  0  0  0  0  0  0  0  0  0  0  0
   15.1392    9.6057   -3.1930 H   0  0  0  0  0  0  0  0  0  0  0  0
   15.4747   11.9296   -2.4828 H   0  0  0  0  0  0  0  0  0  0  0  0
   13.8368   13.0047   -1.0101 H   0  0  0  0  0  0  0  0  0  0  0  0
   11.8743   11.7591   -0.2353 H   0  0  0  0  0  0  0  0  0  0  0  0
    9.9685    6.2535   -0.7701 H   0  0  0  0  0  0  0  0  0  0  0  0
   10.0812    8.1400    1.6078 H   0  0  0  0  0  0  0  0  0  0  0  0
   10.9791    6.6420    1.4623 H   0  0  0  0  0  0  0  0  0  0  0  0
    9.2258    6.5989    1.5562 H   0  0  0  0  0  0  0  0  0  0  0  0
    8.6900    8.9641   -0.2876 H   0  0  0  0  0  0  0  0  0  0  0  0
    7.8439    7.4194   -0.3238 H   0  0  0  0  0  0  0  0  0  0  0  0
    8.5992    8.0435   -1.7843 H   0  0  0  0  0  0  0  0  0  0  0  0
  1  2  2  0  0  0  0
  1 25  1  0  0  0  0
  2  3  1  0  0  0  0
  2 26  1  0  0  0  0
  3 18  1  0  0  0  0
  3  4  1  0  0  0  0
  4  8  1  0  0  0  0
  4  5  1  0  0  0  0
  5  7  1  0  0  0  0
  5  6  2  0  0  0  0
  7 29  1  0  0  0  0
  7 30  1  0  0  0  0
  7 31  1  0  0  0  0
  8  9  2  0  0  0  0
 10 11  1  0  0  0  0
 10 12  1  0  0  0  0
 10  8  1  0  0  0  0
 10 32  1  6  0  0  0
 11 33  1  0  0  0  0
 11 34  1  0  0  0  0
 11 35  1  0  0  0  0
 12 13  2  0  0  0  0
 12 17  1  0  0  0  0
 13 14  1  0  0  0  0
 13 36  1  0  0  0  0
 14 15  2  0  0  0  0
 14 37  1  0  0  0  0
 15 16  1  0  0  0  0
 15 38  1  0  0  0  0
 16 17  2  0  0  0  0
 16 39  1  0  0  0  0
 17 40  1  0  0  0  0
 18 20  1  0  0  0  0
 18 19  2  0  0  0  0
 20 21  1  0  0  0  0
 20 25  2  0  0  0  0
 21 22  2  0  0  0  0
 21 41  1  0  0  0  0
 22 23  1  0  0  0  0
 22 42  1  0  0  0  0
 23 24  2  0  0  0  0
 23 43  1  0  0  0  0
 24 25  1  0  0  0  0
 24 44  1  0  0  0  0
 26 28  1  0  0  0  0
 26 27  1  0  0  0  0
 26 45  1  0  0  0  0
 27 46  1  0  0  0  0
 27 47  1  0  0  0  0
 27 48  1  0  0  0  0
 28 49  1  0  0  0  0
 28 50  1  0  0  0  0
 28 51  1  0  0  0  0
M  END
$$$$
