omegacsd_HEHVOF
 OpenBabel05061917433D

 51 53  0  0  1  0  0  0  0  0999 V2000
   12.9657  -10.5427   -6.7053 N   0  0  0  0  0  0  0  0  0  0  0  0
   12.8319  -11.7706   -6.3129 C   0  0  0  0  0  0  0  0  0  0  0  0
   11.6019  -12.4100   -6.2963 N   0  0  0  0  0  0  0  0  0  0  0  0
   11.4713  -13.7757   -5.8939 N   0  0  0  0  0  0  0  0  0  0  0  0
   12.0760  -14.7579   -6.6684 C   0  0  0  0  0  0  0  0  0  0  0  0
   12.0388  -15.9575   -6.3964 O   0  0  0  0  0  0  0  0  0  0  0  0
   12.7890  -14.3326   -7.9305 C   0  0  0  0  0  0  0  0  0  0  0  0
   11.1207  -14.1115   -4.5792 C   0  0  0  0  0  0  0  0  0  0  0  0
   11.6607  -15.0590   -3.9906 O   0  0  0  0  0  0  0  0  0  0  0  0
   10.1271  -13.2350   -3.8144 C   0  0  2  0  0  0  0  0  0  0  0  0
   10.2939  -13.4105   -2.3156 C   0  0  0  0  0  0  0  0  0  0  0  0
    8.6942  -13.3091   -4.3102 C   0  0  0  0  0  0  0  0  0  0  0  0
    8.2262  -14.2835   -5.1863 C   0  0  0  0  0  0  0  0  0  0  0  0
    6.8951  -14.3138   -5.5803 C   0  0  0  0  0  0  0  0  0  0  0  0
    6.0037  -13.3761   -5.1004 C   0  0  0  0  0  0  0  0  0  0  0  0
    6.4453  -12.3909   -4.2434 C   0  0  0  0  0  0  0  0  0  0  0  0
    7.7748  -12.3547   -3.8572 C   0  0  0  0  0  0  0  0  0  0  0  0
   10.4224  -11.7029   -6.5025 C   0  0  0  0  0  0  0  0  0  0  0  0
    9.2993  -12.1006   -6.2602 O   0  0  0  0  0  0  0  0  0  0  0  0
   10.5630  -10.3648   -7.0590 C   0  0  0  0  0  0  0  0  0  0  0  0
    9.4658   -9.6553   -7.5379 C   0  0  0  0  0  0  0  0  0  0  0  0
    9.6561   -8.4307   -8.1503 C   0  0  0  0  0  0  0  0  0  0  0  0
   10.9305   -7.9106   -8.2599 C   0  0  0  0  0  0  0  0  0  0  0  0
   12.0144   -8.6168   -7.7611 C   0  0  0  0  0  0  0  0  0  0  0  0
   11.8436   -9.8558   -7.1632 C   0  0  0  0  0  0  0  0  0  0  0  0
   14.0811  -12.5240   -5.8445 C   0  0  0  0  0  0  0  0  0  0  0  0
   15.3326  -11.6767   -6.0201 C   0  0  0  0  0  0  0  0  0  0  0  0
   13.9890  -12.9300   -4.3993 C   0  0  0  0  0  0  0  0  0  0  0  0
   12.7725  -13.2574   -8.0567 H   0  0  0  0  0  0  0  0  0  0  0  0
   12.3148  -14.7796   -8.7897 H   0  0  0  0  0  0  0  0  0  0  0  0
   13.8351  -14.6521   -7.8954 H   0  0  0  0  0  0  0  0  0  0  0  0
   10.3973  -12.2073   -4.0087 H   0  0  0  0  0  0  0  0  0  0  0  0
   10.0733  -14.4302   -2.0057 H   0  0  0  0  0  0  0  0  0  0  0  0
    9.6379  -12.7316   -1.7757 H   0  0  0  0  0  0  0  0  0  0  0  0
   11.3259  -13.1829   -2.0238 H   0  0  0  0  0  0  0  0  0  0  0  0
    8.9009  -15.0203   -5.5808 H   0  0  0  0  0  0  0  0  0  0  0  0
    6.5530  -15.0775   -6.2589 H   0  0  0  0  0  0  0  0  0  0  0  0
    4.9680  -13.4135   -5.3939 H   0  0  0  0  0  0  0  0  0  0  0  0
    5.7546  -11.6539   -3.8708 H   0  0  0  0  0  0  0  0  0  0  0  0
    8.1071  -11.5710   -3.1959 H   0  0  0  0  0  0  0  0  0  0  0  0
    8.4693  -10.0586   -7.4449 H   0  0  0  0  0  0  0  0  0  0  0  0
    8.8136   -7.8829   -8.5414 H   0  0  0  0  0  0  0  0  0  0  0  0
   11.0813   -6.9531   -8.7329 H   0  0  0  0  0  0  0  0  0  0  0  0
   13.0044   -8.1976   -7.8446 H   0  0  0  0  0  0  0  0  0  0  0  0
   14.2077  -13.4082   -6.4510 H   0  0  0  0  0  0  0  0  0  0  0  0
   15.2605  -10.7773   -5.4062 H   0  0  0  0  0  0  0  0  0  0  0  0
   15.4524  -11.3731   -7.0601 H   0  0  0  0  0  0  0  0  0  0  0  0
   16.2223  -12.2281   -5.7174 H   0  0  0  0  0  0  0  0  0  0  0  0
   13.8792  -12.0536   -3.7643 H   0  0  0  0  0  0  0  0  0  0  0  0
   14.8585  -13.4959   -4.0858 H   0  0  0  0  0  0  0  0  0  0  0  0
   13.1383  -13.5498   -4.2335 H   0  0  0  0  0  0  0  0  0  0  0  0
  1  2  2  0  0  0  0
  1 25  1  0  0  0  0
  2  3  1  0  0  0  0
  2 26  1  0  0  0  0
  3 18  1  0  0  0  0
  3  4  1  0  0  0  0
  4  8  1  0  0  0  0
  4  5  1  0  0  0  0
  5  7  1  0  0  0  0
  5  6  2  0  0  0  0
  7 29  1  0  0  0  0
  7 30  1  0  0  0  0
  7 31  1  0  0  0  0
  8  9  2  0  0  0  0
 10 11  1  0  0  0  0
 10 12  1  0  0  0  0
 10  8  1  0  0  0  0
 10 32  1  6  0  0  0
 11 33  1  0  0  0  0
 11 34  1  0  0  0  0
 11 35  1  0  0  0  0
 12 13  2  0  0  0  0
 12 17  1  0  0  0  0
 13 14  1  0  0  0  0
 13 36  1  0  0  0  0
 14 15  2  0  0  0  0
 14 37  1  0  0  0  0
 15 16  1  0  0  0  0
 15 38  1  0  0  0  0
 16 17  2  0  0  0  0
 16 39  1  0  0  0  0
 17 40  1  0  0  0  0
 18 20  1  0  0  0  0
 18 19  2  0  0  0  0
 20 21  1  0  0  0  0
 20 25  2  0  0  0  0
 21 22  2  0  0  0  0
 21 41  1  0  0  0  0
 22 23  1  0  0  0  0
 22 42  1  0  0  0  0
 23 24  2  0  0  0  0
 23 43  1  0  0  0  0
 24 25  1  0  0  0  0
 24 44  1  0  0  0  0
 26 28  1  0  0  0  0
 26 27  1  0  0  0  0
 26 45  1  0  0  0  0
 27 46  1  0  0  0  0
 27 47  1  0  0  0  0
 27 48  1  0  0  0  0
 28 49  1  0  0  0  0
 28 50  1  0  0  0  0
 28 51  1  0  0  0  0
M  END
$$$$
