omegacsd_HEHVOF
 OpenBabel05181918353D

 51 53  0  0  1  0  0  0  0  0999 V2000
    0.7497    7.7882    3.4197 N   0  0  0  0  0  0  0  0  0  0  0  0
    1.8201    7.3623    3.9999 C   0  0  0  0  0  0  0  0  0  0  0  0
    2.8392    8.1895    4.4749 N   0  0  0  0  0  0  0  0  0  0  0  0
    3.9312    7.4169    4.9641 N   0  0  0  0  0  0  0  0  0  0  0  0
    4.2375    7.7647    6.2658 C   0  0  0  0  0  0  0  0  0  0  0  0
    3.2517    7.8787    7.0359 O   0  0  0  0  0  0  0  0  0  0  0  0
    5.5184    8.1040    6.8787 C   0  0  0  0  0  0  0  0  0  0  0  0
    4.8804    6.5644    4.3600 C   0  0  0  0  0  0  0  0  0  0  0  0
    5.3286    5.6115    5.0765 O   0  0  0  0  0  0  0  0  0  0  0  0
    5.0752    6.3051    2.9109 C   0  0  2  0  0  0  0  0  0  0  0  0
    4.9340    7.6172    2.2302 C   0  0  0  0  0  0  0  0  0  0  0  0
    4.3471    5.1544    2.2290 C   0  0  0  0  0  0  0  0  0  0  0  0
    3.5160    4.2378    2.8474 C   0  0  0  0  0  0  0  0  0  0  0  0
    2.8680    3.2165    2.1768 C   0  0  0  0  0  0  0  0  0  0  0  0
    3.0680    3.0759    0.8269 C   0  0  0  0  0  0  0  0  0  0  0  0
    3.9184    3.9373    0.1710 C   0  0  0  0  0  0  0  0  0  0  0  0
    4.5564    4.9483    0.8700 C   0  0  0  0  0  0  0  0  0  0  0  0
    3.1173    9.2838    3.6285 C   0  0  0  0  0  0  0  0  0  0  0  0
    4.2158    9.8073    3.4420 O   0  0  0  0  0  0  0  0  0  0  0  0
    1.9197    9.8549    2.9945 C   0  0  0  0  0  0  0  0  0  0  0  0
    1.9130   11.1606    2.5308 C   0  0  0  0  0  0  0  0  0  0  0  0
    0.7349   11.7211    2.0804 C   0  0  0  0  0  0  0  0  0  0  0  0
   -0.4226   10.9707    2.0722 C   0  0  0  0  0  0  0  0  0  0  0  0
   -0.4051    9.6605    2.5186 C   0  0  0  0  0  0  0  0  0  0  0  0
    0.7617    9.0941    2.9927 C   0  0  0  0  0  0  0  0  0  0  0  0
    1.6755    5.9154    4.5793 C   0  0  0  0  0  0  0  0  0  0  0  0
    2.7849    5.4921    5.5383 C   0  0  0  0  0  0  0  0  0  0  0  0
    0.4593    5.6781    5.4447 C   0  0  0  0  0  0  0  0  0  0  0  0
    6.2317    8.2086    6.0951 H   0  0  0  0  0  0  0  0  0  0  0  0
    5.8036    7.3301    7.5764 H   0  0  0  0  0  0  0  0  0  0  0  0
    5.4234    9.0492    7.4243 H   0  0  0  0  0  0  0  0  0  0  0  0
    6.1062    6.0033    2.8611 H   0  0  0  0  0  0  0  0  0  0  0  0
    3.9216    7.9813    2.2415 H   0  0  0  0  0  0  0  0  0  0  0  0
    5.2302    7.5447    1.1972 H   0  0  0  0  0  0  0  0  0  0  0  0
    5.5872    8.3538    2.7101 H   0  0  0  0  0  0  0  0  0  0  0  0
    3.3486    4.2887    3.8985 H   0  0  0  0  0  0  0  0  0  0  0  0
    2.2129    2.5433    2.6988 H   0  0  0  0  0  0  0  0  0  0  0  0
    2.5668    2.2966    0.2868 H   0  0  0  0  0  0  0  0  0  0  0  0
    4.0831    3.8259   -0.8836 H   0  0  0  0  0  0  0  0  0  0  0  0
    5.2212    5.6048    0.3421 H   0  0  0  0  0  0  0  0  0  0  0  0
    2.8163   11.7395    2.5315 H   0  0  0  0  0  0  0  0  0  0  0  0
    0.7190   12.7384    1.7377 H   0  0  0  0  0  0  0  0  0  0  0  0
   -1.3388   11.4040    1.7169 H   0  0  0  0  0  0  0  0  0  0  0  0
   -1.3082    9.0806    2.4995 H   0  0  0  0  0  0  0  0  0  0  0  0
    1.6597    5.2067    3.7644 H   0  0  0  0  0  0  0  0  0  0  0  0
    2.8888    6.1286    6.3800 H   0  0  0  0  0  0  0  0  0  0  0  0
    3.6284    5.5501    4.9809 H   0  0  0  0  0  0  0  0  0  0  0  0
    2.8295    4.4846    5.8583 H   0  0  0  0  0  0  0  0  0  0  0  0
    0.4369    6.3167    6.3209 H   0  0  0  0  0  0  0  0  0  0  0  0
    0.3772    4.6335    5.7909 H   0  0  0  0  0  0  0  0  0  0  0  0
   -0.4373    5.8706    4.8584 H   0  0  0  0  0  0  0  0  0  0  0  0
  1  2  2  0  0  0  0
  1 25  1  0  0  0  0
  2  3  1  0  0  0  0
  2 26  1  0  0  0  0
  3 18  1  0  0  0  0
  3  4  1  0  0  0  0
  4  8  1  0  0  0  0
  4  5  1  0  0  0  0
  5  7  1  0  0  0  0
  5  6  2  0  0  0  0
  7 29  1  0  0  0  0
  7 30  1  0  0  0  0
  7 31  1  0  0  0  0
  8  9  2  0  0  0  0
 10 11  1  0  0  0  0
 10 12  1  0  0  0  0
 10  8  1  0  0  0  0
 10 32  1  6  0  0  0
 11 33  1  0  0  0  0
 11 34  1  0  0  0  0
 11 35  1  0  0  0  0
 12 13  2  0  0  0  0
 12 17  1  0  0  0  0
 13 14  1  0  0  0  0
 13 36  1  0  0  0  0
 14 15  2  0  0  0  0
 14 37  1  0  0  0  0
 15 16  1  0  0  0  0
 15 38  1  0  0  0  0
 16 17  2  0  0  0  0
 16 39  1  0  0  0  0
 17 40  1  0  0  0  0
 18 20  1  0  0  0  0
 18 19  2  0  0  0  0
 20 21  1  0  0  0  0
 20 25  2  0  0  0  0
 21 22  2  0  0  0  0
 21 41  1  0  0  0  0
 22 23  1  0  0  0  0
 22 42  1  0  0  0  0
 23 24  2  0  0  0  0
 23 43  1  0  0  0  0
 24 25  1  0  0  0  0
 24 44  1  0  0  0  0
 26 28  1  0  0  0  0
 26 27  1  0  0  0  0
 26 45  1  0  0  0  0
 27 46  1  0  0  0  0
 27 47  1  0  0  0  0
 27 48  1  0  0  0  0
 28 49  1  0  0  0  0
 28 50  1  0  0  0  0
 28 51  1  0  0  0  0
M  END
$$$$
