omegacsd_HEHVOF
 OpenBabel05181920133D

 51 53  0  0  1  0  0  0  0  0999 V2000
   -6.0570  -14.1068    0.5824 N   0  0  0  0  0  0  0  0  0  0  0  0
   -4.8061  -13.8612    0.3776 C   0  0  0  0  0  0  0  0  0  0  0  0
   -4.3316  -12.6105   -0.0287 N   0  0  0  0  0  0  0  0  0  0  0  0
   -2.8721  -12.3830    0.0380 N   0  0  0  0  0  0  0  0  0  0  0  0
   -2.1758  -12.9446   -1.0313 C   0  0  0  0  0  0  0  0  0  0  0  0
   -0.9473  -13.0745   -1.0089 O   0  0  0  0  0  0  0  0  0  0  0  0
   -2.8927  -13.8810   -1.9468 C   0  0  0  0  0  0  0  0  0  0  0  0
   -2.4291  -11.0557    0.2349 C   0  0  0  0  0  0  0  0  0  0  0  0
   -1.5730  -10.5046   -0.4693 O   0  0  0  0  0  0  0  0  0  0  0  0
   -2.9473  -10.3051    1.4973 C   0  0  2  0  0  0  0  0  0  0  0  0
   -3.7517  -11.2303    2.3979 C   0  0  0  0  0  0  0  0  0  0  0  0
   -3.5367   -8.9242    1.2712 C   0  0  0  0  0  0  0  0  0  0  0  0
   -2.8696   -7.9442    0.5451 C   0  0  0  0  0  0  0  0  0  0  0  0
   -3.4514   -6.7111    0.3001 C   0  0  0  0  0  0  0  0  0  0  0  0
   -4.7206   -6.4439    0.7646 C   0  0  0  0  0  0  0  0  0  0  0  0
   -5.3971   -7.3987    1.4904 C   0  0  0  0  0  0  0  0  0  0  0  0
   -4.8053   -8.6188    1.7463 C   0  0  0  0  0  0  0  0  0  0  0  0
   -5.1893  -11.5203   -0.1956 C   0  0  0  0  0  0  0  0  0  0  0  0
   -4.8502  -10.4372   -0.6503 O   0  0  0  0  0  0  0  0  0  0  0  0
   -6.5842  -11.7489    0.2160 C   0  0  0  0  0  0  0  0  0  0  0  0
   -7.4991  -10.7045    0.2885 C   0  0  0  0  0  0  0  0  0  0  0  0
   -8.7888  -10.9485    0.7205 C   0  0  0  0  0  0  0  0  0  0  0  0
   -9.1662  -12.2317    1.0605 C   0  0  0  0  0  0  0  0  0  0  0  0
   -8.2532  -13.2696    0.9753 C   0  0  0  0  0  0  0  0  0  0  0  0
   -6.9497  -13.0391    0.5675 C   0  0  0  0  0  0  0  0  0  0  0  0
   -3.8391  -15.0550    0.3781 C   0  0  0  0  0  0  0  0  0  0  0  0
   -4.0396  -15.9536    1.5534 C   0  0  0  0  0  0  0  0  0  0  0  0
   -4.0081  -15.9272   -0.8760 C   0  0  0  0  0  0  0  0  0  0  0  0
   -3.9895  -13.8004   -1.8257 H   0  0  0  0  0  0  0  0  0  0  0  0
   -2.5165  -14.9178   -1.7373 H   0  0  0  0  0  0  0  0  0  0  0  0
   -2.6767  -13.7343   -2.9745 H   0  0  0  0  0  0  0  0  0  0  0  0
   -2.0564  -10.0774    2.0764 H   0  0  0  0  0  0  0  0  0  0  0  0
   -4.6732  -11.5397    1.9368 H   0  0  0  0  0  0  0  0  0  0  0  0
   -4.0203  -10.7318    3.3255 H   0  0  0  0  0  0  0  0  0  0  0  0
   -3.1852  -12.1258    2.6460 H   0  0  0  0  0  0  0  0  0  0  0  0
   -1.8747   -8.1318    0.1743 H   0  0  0  0  0  0  0  0  0  0  0  0
   -2.9164   -5.9638   -0.2595 H   0  0  0  0  0  0  0  0  0  0  0  0
   -5.1805   -5.4934    0.5623 H   0  0  0  0  0  0  0  0  0  0  0  0
   -6.3858   -7.1944    1.8585 H   0  0  0  0  0  0  0  0  0  0  0  0
   -5.3499   -9.3543    2.3095 H   0  0  0  0  0  0  0  0  0  0  0  0
   -7.2068   -9.7049    0.0135 H   0  0  0  0  0  0  0  0  0  0  0  0
   -9.4987  -10.1415    0.7895 H   0  0  0  0  0  0  0  0  0  0  0  0
  -10.1723  -12.4257    1.3922 H   0  0  0  0  0  0  0  0  0  0  0  0
   -8.5583  -14.2690    1.2367 H   0  0  0  0  0  0  0  0  0  0  0  0
   -2.8179  -14.6787    0.3868 H   0  0  0  0  0  0  0  0  0  0  0  0
   -5.0427  -16.3713    1.5271 H   0  0  0  0  0  0  0  0  0  0  0  0
   -3.9125  -15.3833    2.4633 H   0  0  0  0  0  0  0  0  0  0  0  0
   -3.3212  -16.7722    1.5396 H   0  0  0  0  0  0  0  0  0  0  0  0
   -5.0079  -16.3183   -0.9557 H   0  0  0  0  0  0  0  0  0  0  0  0
   -3.2772  -16.7239   -0.9285 H   0  0  0  0  0  0  0  0  0  0  0  0
   -3.9889  -15.4338   -1.8163 H   0  0  0  0  0  0  0  0  0  0  0  0
  1  2  2  0  0  0  0
  1 25  1  0  0  0  0
  2  3  1  0  0  0  0
  2 26  1  0  0  0  0
  3 18  1  0  0  0  0
  3  4  1  0  0  0  0
  4  8  1  0  0  0  0
  4  5  1  0  0  0  0
  5  7  1  0  0  0  0
  5  6  2  0  0  0  0
  7 29  1  0  0  0  0
  7 30  1  0  0  0  0
  7 31  1  0  0  0  0
  8  9  2  0  0  0  0
 10 11  1  0  0  0  0
 10 12  1  0  0  0  0
 10  8  1  0  0  0  0
 10 32  1  1  0  0  0
 11 33  1  0  0  0  0
 11 34  1  0  0  0  0
 11 35  1  0  0  0  0
 12 13  2  0  0  0  0
 12 17  1  0  0  0  0
 13 14  1  0  0  0  0
 13 36  1  0  0  0  0
 14 15  2  0  0  0  0
 14 37  1  0  0  0  0
 15 16  1  0  0  0  0
 15 38  1  0  0  0  0
 16 17  2  0  0  0  0
 16 39  1  0  0  0  0
 17 40  1  0  0  0  0
 18 20  1  0  0  0  0
 18 19  2  0  0  0  0
 20 21  1  0  0  0  0
 20 25  2  0  0  0  0
 21 22  2  0  0  0  0
 21 41  1  0  0  0  0
 22 23  1  0  0  0  0
 22 42  1  0  0  0  0
 23 24  2  0  0  0  0
 23 43  1  0  0  0  0
 24 25  1  0  0  0  0
 24 44  1  0  0  0  0
 26 28  1  0  0  0  0
 26 27  1  0  0  0  0
 26 45  1  0  0  0  0
 27 46  1  0  0  0  0
 27 47  1  0  0  0  0
 27 48  1  0  0  0  0
 28 49  1  0  0  0  0
 28 50  1  0  0  0  0
 28 51  1  0  0  0  0
M  END
$$$$
