omegacsd_HEHVOF
 OpenBabel05181917393D

 51 53  0  0  1  0  0  0  0  0999 V2000
   11.9510    2.3397   -7.9490 N   0  0  0  0  0  0  0  0  0  0  0  0
   11.3254    1.7854   -6.9688 C   0  0  0  0  0  0  0  0  0  0  0  0
   11.8755    1.4775   -5.7394 N   0  0  0  0  0  0  0  0  0  0  0  0
   10.9649    1.4592   -4.5997 N   0  0  0  0  0  0  0  0  0  0  0  0
   10.7199   -0.1239   -4.7178 C   0  0  0  0  0  0  0  0  0  0  0  0
   11.3180   -0.9263   -5.4510 O   0  0  0  0  0  0  0  0  0  0  0  0
    9.8190   -0.7040   -3.5983 C   0  0  0  0  0  0  0  0  0  0  0  0
   11.3288    1.5536   -3.2820 C   0  0  0  0  0  0  0  0  0  0  0  0
   11.3899    0.8791   -2.2737 O   0  0  0  0  0  0  0  0  0  0  0  0
   11.3937    3.1611   -3.0204 C   0  0  2  0  0  0  0  0  0  0  0  0
   12.2383    3.4799   -1.8105 C   0  0  0  0  0  0  0  0  0  0  0  0
   10.1078    3.9779   -3.1770 C   0  0  0  0  0  0  0  0  0  0  0  0
    9.0663    3.6288   -4.0229 C   0  0  0  0  0  0  0  0  0  0  0  0
    7.8748    4.3357   -4.0572 C   0  0  0  0  0  0  0  0  0  0  0  0
    7.6931    5.4197   -3.2282 C   0  0  0  0  0  0  0  0  0  0  0  0
    8.7033    5.8016   -2.3756 C   0  0  0  0  0  0  0  0  0  0  0  0
    9.8908    5.0898   -2.3542 C   0  0  0  0  0  0  0  0  0  0  0  0
   13.0002    2.3670   -5.3531 C   0  0  0  0  0  0  0  0  0  0  0  0
   13.5432    2.3563   -4.2387 O   0  0  0  0  0  0  0  0  0  0  0  0
   13.5912    3.2230   -6.4011 C   0  0  0  0  0  0  0  0  0  0  0  0
   14.6330    4.1141   -6.1488 C   0  0  0  0  0  0  0  0  0  0  0  0
   15.1271    4.9012   -7.1712 C   0  0  0  0  0  0  0  0  0  0  0  0
   14.6004    4.7847   -8.4407 C   0  0  0  0  0  0  0  0  0  0  0  0
   13.5781    3.8863   -8.6882 C   0  0  0  0  0  0  0  0  0  0  0  0
   13.0584    3.1065   -7.6704 C   0  0  0  0  0  0  0  0  0  0  0  0
   10.1665    0.8034   -7.3138 C   0  0  0  0  0  0  0  0  0  0  0  0
    9.0544    0.8406   -6.3117 C   0  0  0  0  0  0  0  0  0  0  0  0
    9.6280    1.0516   -8.6834 C   0  0  0  0  0  0  0  0  0  0  0  0
    9.5992    0.0412   -2.8524 H   0  0  0  0  0  0  0  0  0  0  0  0
   10.3593   -1.5247   -3.1363 H   0  0  0  0  0  0  0  0  0  0  0  0
    8.8835   -1.0765   -3.9958 H   0  0  0  0  0  0  0  0  0  0  0  0
   11.9318    3.5906   -3.8571 H   0  0  0  0  0  0  0  0  0  0  0  0
   11.7572    3.1149   -0.9144 H   0  0  0  0  0  0  0  0  0  0  0  0
   12.3965    4.5508   -1.7146 H   0  0  0  0  0  0  0  0  0  0  0  0
   13.2107    3.0076   -1.9041 H   0  0  0  0  0  0  0  0  0  0  0  0
    9.1750    2.7914   -4.6668 H   0  0  0  0  0  0  0  0  0  0  0  0
    7.0923    4.0414   -4.7281 H   0  0  0  0  0  0  0  0  0  0  0  0
    6.7705    5.9642   -3.2474 H   0  0  0  0  0  0  0  0  0  0  0  0
    8.5690    6.6478   -1.7317 H   0  0  0  0  0  0  0  0  0  0  0  0
   10.6616    5.4060   -1.6784 H   0  0  0  0  0  0  0  0  0  0  0  0
   15.0501    4.1955   -5.1648 H   0  0  0  0  0  0  0  0  0  0  0  0
   15.9176    5.5994   -6.9802 H   0  0  0  0  0  0  0  0  0  0  0  0
   14.9842    5.3913   -9.2368 H   0  0  0  0  0  0  0  0  0  0  0  0
   13.1777    3.7968   -9.6789 H   0  0  0  0  0  0  0  0  0  0  0  0
   10.5737   -0.2512   -7.3387 H   0  0  0  0  0  0  0  0  0  0  0  0
    8.6867    1.8354   -6.2506 H   0  0  0  0  0  0  0  0  0  0  0  0
    9.3509    0.6287   -5.3419 H   0  0  0  0  0  0  0  0  0  0  0  0
    8.2826    0.1331   -6.5143 H   0  0  0  0  0  0  0  0  0  0  0  0
    9.2277    2.0662   -8.6718 H   0  0  0  0  0  0  0  0  0  0  0  0
    8.8103    0.3793   -8.9176 H   0  0  0  0  0  0  0  0  0  0  0  0
   10.3867    0.9879   -9.4443 H   0  0  0  0  0  0  0  0  0  0  0  0
  1  2  2  0  0  0  0
  1 25  1  0  0  0  0
  2  3  1  0  0  0  0
  2 26  1  0  0  0  0
  3 18  1  0  0  0  0
  3  4  1  0  0  0  0
  4  8  1  0  0  0  0
  4  5  1  0  0  0  0
  5  7  1  0  0  0  0
  5  6  2  0  0  0  0
  7 29  1  0  0  0  0
  7 30  1  0  0  0  0
  7 31  1  0  0  0  0
  8  9  2  0  0  0  0
 10 11  1  0  0  0  0
 10 12  1  0  0  0  0
 10  8  1  0  0  0  0
 10 32  1  6  0  0  0
 11 33  1  0  0  0  0
 11 34  1  0  0  0  0
 11 35  1  0  0  0  0
 12 13  2  0  0  0  0
 12 17  1  0  0  0  0
 13 14  1  0  0  0  0
 13 36  1  0  0  0  0
 14 15  2  0  0  0  0
 14 37  1  0  0  0  0
 15 16  1  0  0  0  0
 15 38  1  0  0  0  0
 16 17  2  0  0  0  0
 16 39  1  0  0  0  0
 17 40  1  0  0  0  0
 18 20  1  0  0  0  0
 18 19  2  0  0  0  0
 20 21  1  0  0  0  0
 20 25  2  0  0  0  0
 21 22  2  0  0  0  0
 21 41  1  0  0  0  0
 22 23  1  0  0  0  0
 22 42  1  0  0  0  0
 23 24  2  0  0  0  0
 23 43  1  0  0  0  0
 24 25  1  0  0  0  0
 24 44  1  0  0  0  0
 26 28  1  0  0  0  0
 26 27  1  0  0  0  0
 26 45  1  0  0  0  0
 27 46  1  0  0  0  0
 27 47  1  0  0  0  0
 27 48  1  0  0  0  0
 28 49  1  0  0  0  0
 28 50  1  0  0  0  0
 28 51  1  0  0  0  0
M  END
$$$$
