omegacsd_HEHVOF
 OpenBabel05181919143D

 51 53  0  0  1  0  0  0  0  0999 V2000
   14.8033  -13.1342   -4.3301 N   0  0  0  0  0  0  0  0  0  0  0  0
   14.7357  -11.9423   -3.8543 C   0  0  0  0  0  0  0  0  0  0  0  0
   14.8132  -11.6105   -2.5145 N   0  0  0  0  0  0  0  0  0  0  0  0
   15.2985  -10.2001   -2.2488 N   0  0  0  0  0  0  0  0  0  0  0  0
   13.9518   -9.5668   -2.2621 C   0  0  0  0  0  0  0  0  0  0  0  0
   12.8602  -10.1252   -2.1054 O   0  0  0  0  0  0  0  0  0  0  0  0
   13.9569   -8.0564   -2.0291 C   0  0  0  0  0  0  0  0  0  0  0  0
   15.7997   -9.8940   -0.9708 C   0  0  0  0  0  0  0  0  0  0  0  0
   15.4086   -9.1860   -0.0542 O   0  0  0  0  0  0  0  0  0  0  0  0
   17.3384  -10.4058   -0.9586 C   0  0  2  0  0  0  0  0  0  0  0  0
   17.8568  -10.4886    0.4599 C   0  0  0  0  0  0  0  0  0  0  0  0
   18.2625   -9.7610   -1.9725 C   0  0  0  0  0  0  0  0  0  0  0  0
   19.1687  -10.5119   -2.7252 C   0  0  0  0  0  0  0  0  0  0  0  0
   19.9589   -9.9285   -3.7052 C   0  0  0  0  0  0  0  0  0  0  0  0
   19.8657   -8.5766   -3.9408 C   0  0  0  0  0  0  0  0  0  0  0  0
   18.9953   -7.8143   -3.1934 C   0  0  0  0  0  0  0  0  0  0  0  0
   18.2117   -8.4049   -2.2173 C   0  0  0  0  0  0  0  0  0  0  0  0
   15.5039  -12.5767   -1.6717 C   0  0  0  0  0  0  0  0  0  0  0  0
   15.7525  -12.4070   -0.4725 O   0  0  0  0  0  0  0  0  0  0  0  0
   15.8278  -13.8897   -2.2676 C   0  0  0  0  0  0  0  0  0  0  0  0
   16.5294  -14.8759   -1.5756 C   0  0  0  0  0  0  0  0  0  0  0  0
   16.8209  -16.0764   -2.1952 C   0  0  0  0  0  0  0  0  0  0  0  0
   16.3970  -16.2997   -3.4888 C   0  0  0  0  0  0  0  0  0  0  0  0
   15.6865  -15.3232   -4.1646 C   0  0  0  0  0  0  0  0  0  0  0  0
   15.4057  -14.1075   -3.5653 C   0  0  0  0  0  0  0  0  0  0  0  0
   13.9327  -10.9045   -4.6901 C   0  0  0  0  0  0  0  0  0  0  0  0
   14.4779  -10.7744   -6.0674 C   0  0  0  0  0  0  0  0  0  0  0  0
   12.4235  -11.1973   -4.7540 C   0  0  0  0  0  0  0  0  0  0  0  0
   14.9663   -7.7372   -1.8249 H   0  0  0  0  0  0  0  0  0  0  0  0
   13.3275   -7.7831   -1.1738 H   0  0  0  0  0  0  0  0  0  0  0  0
   13.5866   -7.5422   -2.9041 H   0  0  0  0  0  0  0  0  0  0  0  0
   17.3284  -11.4177   -1.3126 H   0  0  0  0  0  0  0  0  0  0  0  0
   17.9022   -9.5075    0.9204 H   0  0  0  0  0  0  0  0  0  0  0  0
   18.8417  -10.9381    0.4869 H   0  0  0  0  0  0  0  0  0  0  0  0
   17.1899  -11.1066    1.0702 H   0  0  0  0  0  0  0  0  0  0  0  0
   19.2550  -11.5742   -2.5682 H   0  0  0  0  0  0  0  0  0  0  0  0
   20.6424  -10.5255   -4.2797 H   0  0  0  0  0  0  0  0  0  0  0  0
   20.4688   -8.1178   -4.6999 H   0  0  0  0  0  0  0  0  0  0  0  0
   18.9240   -6.7582   -3.3686 H   0  0  0  0  0  0  0  0  0  0  0  0
   17.5418   -7.8006   -1.6418 H   0  0  0  0  0  0  0  0  0  0  0  0
   16.8487  -14.7070   -0.5648 H   0  0  0  0  0  0  0  0  0  0  0  0
   17.3740  -16.8338   -1.6727 H   0  0  0  0  0  0  0  0  0  0  0  0
   16.6185  -17.2328   -3.9716 H   0  0  0  0  0  0  0  0  0  0  0  0
   15.3547  -15.5071   -5.1693 H   0  0  0  0  0  0  0  0  0  0  0  0
   14.0051   -9.9364   -4.2035 H   0  0  0  0  0  0  0  0  0  0  0  0
   14.3588  -11.7192   -6.5792 H   0  0  0  0  0  0  0  0  0  0  0  0
   15.5287  -10.5279   -6.0029 H   0  0  0  0  0  0  0  0  0  0  0  0
   13.9606   -9.9987   -6.6211 H   0  0  0  0  0  0  0  0  0  0  0  0
   12.2733  -12.1469   -5.2699 H   0  0  0  0  0  0  0  0  0  0  0  0
   11.8916  -10.4344   -5.3313 H   0  0  0  0  0  0  0  0  0  0  0  0
   11.9531  -11.2775   -3.7805 H   0  0  0  0  0  0  0  0  0  0  0  0
  1  2  2  0  0  0  0
  1 25  1  0  0  0  0
  2  3  1  0  0  0  0
  2 26  1  0  0  0  0
  3 18  1  0  0  0  0
  3  4  1  0  0  0  0
  4  8  1  0  0  0  0
  4  5  1  0  0  0  0
  5  7  1  0  0  0  0
  5  6  2  0  0  0  0
  7 29  1  0  0  0  0
  7 30  1  0  0  0  0
  7 31  1  0  0  0  0
  8  9  2  0  0  0  0
 10 11  1  0  0  0  0
 10 12  1  0  0  0  0
 10  8  1  0  0  0  0
 10 32  1  6  0  0  0
 11 33  1  0  0  0  0
 11 34  1  0  0  0  0
 11 35  1  0  0  0  0
 12 13  2  0  0  0  0
 12 17  1  0  0  0  0
 13 14  1  0  0  0  0
 13 36  1  0  0  0  0
 14 15  2  0  0  0  0
 14 37  1  0  0  0  0
 15 16  1  0  0  0  0
 15 38  1  0  0  0  0
 16 17  2  0  0  0  0
 16 39  1  0  0  0  0
 17 40  1  0  0  0  0
 18 20  1  0  0  0  0
 18 19  2  0  0  0  0
 20 21  1  0  0  0  0
 20 25  2  0  0  0  0
 21 22  2  0  0  0  0
 21 41  1  0  0  0  0
 22 23  1  0  0  0  0
 22 42  1  0  0  0  0
 23 24  2  0  0  0  0
 23 43  1  0  0  0  0
 24 25  1  0  0  0  0
 24 44  1  0  0  0  0
 26 28  1  0  0  0  0
 26 27  1  0  0  0  0
 26 45  1  0  0  0  0
 27 46  1  0  0  0  0
 27 47  1  0  0  0  0
 27 48  1  0  0  0  0
 28 49  1  0  0  0  0
 28 50  1  0  0  0  0
 28 51  1  0  0  0  0
M  END
$$$$
