34
1VJ_4OYB_A
C         23.50590       75.49250        9.50230
C         22.96720       74.75670        8.28180
C         23.49680       71.14780        7.63190
C         21.70650       69.59450        7.18860
C         20.58930       67.77430        8.25700
C         19.37510       68.39490        8.05060
C         19.31850       69.62510        7.40990
C         20.50150       70.21870        6.98140
C         18.04740       70.35790        7.15000
C         16.71400       69.82990        7.55870
O         23.45990       73.38620        8.30820
C         22.87160       72.50460        7.47700
O         21.97080       72.77130        6.71780
O         22.90460       70.17320        6.76760
C         21.75960       68.37540        7.82540
O         18.10490       71.44050        6.57570
N         16.53890       68.92150        8.47740
O         15.16540       68.72670        8.53420
N         14.50720       69.51230        7.65430
C         15.43190       70.19660        7.04550
N         15.15380       71.10390        6.08050
H         23.15130       76.50190        9.49540
H         24.57570       75.49010        9.47680
H         23.16920       75.00220       10.39170
H         23.30390       75.24340        7.39030
H         21.89740       74.76020        8.29660
H         23.37560       70.82710        8.64560
H         24.53040       71.23250        7.36870
H         20.62560       66.85990        8.73410
H         18.50530       67.94310        8.37360
H         20.47300       71.13370        6.50490
H         22.66820       67.91130        7.98080
H         15.88470       71.59980        5.64570
H         14.22050       71.26810        5.81340
