1VJ_4OYB_A
 OpenBabel05201912543D

 34 35  0  0  0  0  0  0  0  0999 V2000
   94.2862    2.6014  -42.8161 C   0  0  0  0  0  0  0  0  0  0  0  0
   94.0102    2.6251  -41.3180 C   0  0  0  0  0  0  0  0  0  0  0  0
   90.8411    4.4544  -41.7455 C   0  0  0  0  0  0  0  0  0  0  0  0
   89.8517    3.7577  -39.6598 C   0  0  0  0  0  0  0  0  0  0  0  0
   91.2687    3.6416  -37.7411 C   0  0  0  0  0  0  0  0  0  0  0  0
   90.2847    2.9641  -37.0521 C   0  0  0  0  0  0  0  0  0  0  0  0
   89.0722    2.6786  -37.6647 C   0  0  0  0  0  0  0  0  0  0  0  0
   88.8671    3.0852  -38.9794 C   0  0  0  0  0  0  0  0  0  0  0  0
   87.9614    1.9516  -36.9881 C   0  0  0  0  0  0  0  0  0  0  0  0
   88.1488    1.1957  -35.7164 C   0  0  0  0  0  0  0  0  0  0  0  0
   92.8559    3.4782  -41.0697 O   0  0  0  0  0  0  0  0  0  0  0  0
   91.7632    3.2719  -41.8296 C   0  0  0  0  0  0  0  0  0  0  0  0
   91.5585    2.2770  -42.4834 O   0  0  0  0  0  0  0  0  0  0  0  0
   89.6659    4.1753  -40.9784 O   0  0  0  0  0  0  0  0  0  0  0  0
   91.0524    4.0407  -39.0493 C   0  0  0  0  0  0  0  0  0  0  0  0
   86.8478    1.9788  -37.5021 O   0  0  0  0  0  0  0  0  0  0  0  0
   89.0527    1.4843  -34.8222 N   0  0  0  0  0  0  0  0  0  0  0  0
   88.8797    0.5413  -33.8179 O   0  0  0  0  0  0  0  0  0  0  0  0
   87.8756   -0.3175  -34.0991 N   0  0  0  0  0  0  0  0  0  0  0  0
   87.4125    0.0615  -35.2549 C   0  0  0  0  0  0  0  0  0  0  0  0
   86.3853   -0.5673  -35.8724 N   0  0  0  0  0  0  0  0  0  0  0  0
   95.1328    1.9775  -43.0129 H   0  0  0  0  0  0  0  0  0  0  0  0
   94.4884    3.5952  -43.1573 H   0  0  0  0  0  0  0  0  0  0  0  0
   93.4311    2.2150  -43.3302 H   0  0  0  0  0  0  0  0  0  0  0  0
   94.8627    3.0131  -40.8008 H   0  0  0  0  0  0  0  0  0  0  0  0
   93.8130    1.6335  -40.9677 H   0  0  0  0  0  0  0  0  0  0  0  0
   90.5470    4.7322  -42.7362 H   0  0  0  0  0  0  0  0  0  0  0  0
   91.3694    5.2464  -41.2571 H   0  0  0  0  0  0  0  0  0  0  0  0
   92.1682    3.8515  -37.2808 H   0  0  0  0  0  0  0  0  0  0  0  0
   90.4504    2.6682  -36.0774 H   0  0  0  0  0  0  0  0  0  0  0  0
   87.9696    2.8801  -39.4457 H   0  0  0  0  0  0  0  0  0  0  0  0
   91.7885    4.5484  -39.5644 H   0  0  0  0  0  0  0  0  0  0  0  0
   86.0664   -0.2469  -36.7470 H   0  0  0  0  0  0  0  0  0  0  0  0
   85.9570   -1.3450  -35.4470 H   0  0  0  0  0  0  0  0  0  0  0  0
  1  2  1  0  0  0  0
  1 22  1  0  0  0  0
  1 23  1  0  0  0  0
  1 24  1  0  0  0  0
  2 11  1  0  0  0  0
  2 25  1  0  0  0  0
  2 26  1  0  0  0  0
  3 12  1  0  0  0  0
  3 14  1  0  0  0  0
  3 27  1  0  0  0  0
  3 28  1  0  0  0  0
  4  8  2  0  0  0  0
  4 14  1  0  0  0  0
  4 15  1  0  0  0  0
  5  6  1  0  0  0  0
  5 15  2  0  0  0  0
  5 29  1  0  0  0  0
  6  7  2  0  0  0  0
  6 30  1  0  0  0  0
  7  8  1  0  0  0  0
  7  9  1  0  0  0  0
  8 31  1  0  0  0  0
  9 10  1  0  0  0  0
  9 16  2  0  0  0  0
 10 17  2  0  0  0  0
 10 20  1  0  0  0  0
 11 12  1  0  0  0  0
 12 13  2  0  0  0  0
 15 32  1  0  0  0  0
 17 18  1  0  0  0  0
 18 19  1  0  0  0  0
 19 20  2  0  0  0  0
 20 21  1  0  0  0  0
 21 33  1  0  0  0  0
 21 34  1  0  0  0  0
M  END
$$$$
