1VJ_4OYB_A
 OpenBabel05121909553D

 34 35  0  0  0  0  0  0  0  0999 V2000
   34.7780   56.9944    7.7708 C   0  0  0  0  0  0  0  0  0  0  0  0
   33.5055   57.2856    6.9852 C   0  0  0  0  0  0  0  0  0  0  0  0
   33.0475   55.3851    3.8379 C   0  0  0  0  0  0  0  0  0  0  0  0
   32.0053   54.5685    1.8225 C   0  0  0  0  0  0  0  0  0  0  0  0
   30.9766   53.6252   -0.1152 C   0  0  0  0  0  0  0  0  0  0  0  0
   32.2199   53.3407   -0.6400 C   0  0  0  0  0  0  0  0  0  0  0  0
   33.3689   53.6705    0.0657 C   0  0  0  0  0  0  0  0  0  0  0  0
   33.2461   54.2898    1.3054 C   0  0  0  0  0  0  0  0  0  0  0  0
   34.7460   53.3962   -0.4331 C   0  0  0  0  0  0  0  0  0  0  0  0
   35.0141   52.5948   -1.6617 C   0  0  0  0  0  0  0  0  0  0  0  0
   33.6539   56.7464    5.6402 O   0  0  0  0  0  0  0  0  0  0  0  0
   32.7486   55.8329    5.2400 C   0  0  0  0  0  0  0  0  0  0  0  0
   31.8300   55.4340    5.9153 O   0  0  0  0  0  0  0  0  0  0  0  0
   31.8601   55.1901    3.0635 O   0  0  0  0  0  0  0  0  0  0  0  0
   30.8678   54.2417    1.1199 C   0  0  0  0  0  0  0  0  0  0  0  0
   35.6959   53.8508    0.1963 O   0  0  0  0  0  0  0  0  0  0  0  0
   34.4091   51.4765   -1.9502 N   0  0  0  0  0  0  0  0  0  0  0  0
   34.9556   51.0734   -3.1613 O   0  0  0  0  0  0  0  0  0  0  0  0
   35.8888   51.9418   -3.6081 N   0  0  0  0  0  0  0  0  0  0  0  0
   35.9433   52.8811   -2.7088 C   0  0  0  0  0  0  0  0  0  0  0  0
   36.7766   53.9427   -2.8103 N   0  0  0  0  0  0  0  0  0  0  0  0
   34.6826   57.3856    8.7620 H   0  0  0  0  0  0  0  0  0  0  0  0
   35.6114   57.4562    7.2838 H   0  0  0  0  0  0  0  0  0  0  0  0
   34.9337   55.9369    7.8182 H   0  0  0  0  0  0  0  0  0  0  0  0
   33.3479   58.3426    6.9340 H   0  0  0  0  0  0  0  0  0  0  0  0
   32.6661   56.8321    7.4695 H   0  0  0  0  0  0  0  0  0  0  0  0
   33.5862   54.4615    3.8795 H   0  0  0  0  0  0  0  0  0  0  0  0
   33.6230   56.1534    3.3653 H   0  0  0  0  0  0  0  0  0  0  0  0
   30.1256   53.3781   -0.6442 H   0  0  0  0  0  0  0  0  0  0  0  0
   32.2963   52.8808   -1.5607 H   0  0  0  0  0  0  0  0  0  0  0  0
   34.0926   54.5412    1.8394 H   0  0  0  0  0  0  0  0  0  0  0  0
   29.9374   54.4553    1.5120 H   0  0  0  0  0  0  0  0  0  0  0  0
   36.7852   54.6308   -2.1063 H   0  0  0  0  0  0  0  0  0  0  0  0
   37.3740   54.0269   -3.5883 H   0  0  0  0  0  0  0  0  0  0  0  0
  1  2  1  0  0  0  0
  1 22  1  0  0  0  0
  1 23  1  0  0  0  0
  1 24  1  0  0  0  0
  2 11  1  0  0  0  0
  2 25  1  0  0  0  0
  2 26  1  0  0  0  0
  3 12  1  0  0  0  0
  3 14  1  0  0  0  0
  3 27  1  0  0  0  0
  3 28  1  0  0  0  0
  4  8  2  0  0  0  0
  4 14  1  0  0  0  0
  4 15  1  0  0  0  0
  5  6  1  0  0  0  0
  5 15  2  0  0  0  0
  5 29  1  0  0  0  0
  6  7  2  0  0  0  0
  6 30  1  0  0  0  0
  7  8  1  0  0  0  0
  7  9  1  0  0  0  0
  8 31  1  0  0  0  0
  9 10  1  0  0  0  0
  9 16  2  0  0  0  0
 10 17  2  0  0  0  0
 10 20  1  0  0  0  0
 11 12  1  0  0  0  0
 12 13  2  0  0  0  0
 15 32  1  0  0  0  0
 17 18  1  0  0  0  0
 18 19  1  0  0  0  0
 19 20  2  0  0  0  0
 20 21  1  0  0  0  0
 21 33  1  0  0  0  0
 21 34  1  0  0  0  0
M  END
$$$$
