1VJ_4OYB_A
 OpenBabel05201913303D

 34 35  0  0  0  0  0  0  0  0999 V2000
   -2.2008   52.0256   20.8743 C   0  0  0  0  0  0  0  0  0  0  0  0
   -1.2236   51.0474   20.2346 C   0  0  0  0  0  0  0  0  0  0  0  0
   -0.4105   47.7785   21.7755 C   0  0  0  0  0  0  0  0  0  0  0  0
    0.4796   45.6573   21.0526 C   0  0  0  0  0  0  0  0  0  0  0  0
    1.0957   44.1073   19.3436 C   0  0  0  0  0  0  0  0  0  0  0  0
    0.0996   43.2489   19.7592 C   0  0  0  0  0  0  0  0  0  0  0  0
   -0.7160   43.5901   20.8296 C   0  0  0  0  0  0  0  0  0  0  0  0
   -0.5128   44.8069   21.4728 C   0  0  0  0  0  0  0  0  0  0  0  0
   -1.8122   42.7179   21.3373 C   0  0  0  0  0  0  0  0  0  0  0  0
   -1.8993   41.2638   21.0184 C   0  0  0  0  0  0  0  0  0  0  0  0
   -1.2928   49.7820   20.9527 O   0  0  0  0  0  0  0  0  0  0  0  0
   -0.1468   49.0872   21.0873 C   0  0  0  0  0  0  0  0  0  0  0  0
    0.9353   49.4661   20.7073 O   0  0  0  0  0  0  0  0  0  0  0  0
    0.7007   46.8817   21.6847 O   0  0  0  0  0  0  0  0  0  0  0  0
    1.2876   45.3156   19.9921 C   0  0  0  0  0  0  0  0  0  0  0  0
   -2.6770   43.2212   22.0473 O   0  0  0  0  0  0  0  0  0  0  0  0
   -1.0907   40.6455   20.2037 N   0  0  0  0  0  0  0  0  0  0  0  0
   -1.5257   39.3270   20.1963 O   0  0  0  0  0  0  0  0  0  0  0  0
   -2.5941   39.1432   21.0022 N   0  0  0  0  0  0  0  0  0  0  0  0
   -2.8421   40.3127   21.5166 C   0  0  0  0  0  0  0  0  0  0  0  0
   -3.8558   40.5282   22.3871 N   0  0  0  0  0  0  0  0  0  0  0  0
   -2.1602   52.9607   20.3559 H   0  0  0  0  0  0  0  0  0  0  0  0
   -1.9360   52.1748   21.9002 H   0  0  0  0  0  0  0  0  0  0  0  0
   -3.1926   51.6283   20.8162 H   0  0  0  0  0  0  0  0  0  0  0  0
   -0.2303   51.4408   20.2929 H   0  0  0  0  0  0  0  0  0  0  0  0
   -1.4782   50.8976   19.2062 H   0  0  0  0  0  0  0  0  0  0  0  0
   -1.2626   47.3171   21.3217 H   0  0  0  0  0  0  0  0  0  0  0  0
   -0.5812   47.9831   22.8118 H   0  0  0  0  0  0  0  0  0  0  0  0
    1.6994   43.8486   18.5475 H   0  0  0  0  0  0  0  0  0  0  0  0
   -0.0401   42.3495   19.2728 H   0  0  0  0  0  0  0  0  0  0  0  0
   -1.1116   45.0717   22.2705 H   0  0  0  0  0  0  0  0  0  0  0  0
    2.0337   45.9575   19.6814 H   0  0  0  0  0  0  0  0  0  0  0  0
   -4.0079   41.4297   22.7522 H   0  0  0  0  0  0  0  0  0  0  0  0
   -4.4412   39.7833   22.6552 H   0  0  0  0  0  0  0  0  0  0  0  0
  1  2  1  0  0  0  0
  1 22  1  0  0  0  0
  1 23  1  0  0  0  0
  1 24  1  0  0  0  0
  2 11  1  0  0  0  0
  2 25  1  0  0  0  0
  2 26  1  0  0  0  0
  3 12  1  0  0  0  0
  3 14  1  0  0  0  0
  3 27  1  0  0  0  0
  3 28  1  0  0  0  0
  4  8  2  0  0  0  0
  4 14  1  0  0  0  0
  4 15  1  0  0  0  0
  5  6  1  0  0  0  0
  5 15  2  0  0  0  0
  5 29  1  0  0  0  0
  6  7  2  0  0  0  0
  6 30  1  0  0  0  0
  7  8  1  0  0  0  0
  7  9  1  0  0  0  0
  8 31  1  0  0  0  0
  9 10  1  0  0  0  0
  9 16  2  0  0  0  0
 10 17  2  0  0  0  0
 10 20  1  0  0  0  0
 11 12  1  0  0  0  0
 12 13  2  0  0  0  0
 15 32  1  0  0  0  0
 17 18  1  0  0  0  0
 18 19  1  0  0  0  0
 19 20  2  0  0  0  0
 20 21  1  0  0  0  0
 21 33  1  0  0  0  0
 21 34  1  0  0  0  0
M  END
$$$$
