1VJ_4OYB_A
 OpenBabel05121900433D

 34 35  0  0  0  0  0  0  0  0999 V2000
   54.4044   30.1249  -51.8443 C   0  0  0  0  0  0  0  0  0  0  0  0
   54.5182   31.2583  -50.8326 C   0  0  0  0  0  0  0  0  0  0  0  0
   55.1478   31.0369  -47.2534 C   0  0  0  0  0  0  0  0  0  0  0  0
   54.5298   29.4983  -45.5025 C   0  0  0  0  0  0  0  0  0  0  0  0
   54.1301   30.4198  -43.3360 C   0  0  0  0  0  0  0  0  0  0  0  0
   54.0314   29.1485  -42.8106 C   0  0  0  0  0  0  0  0  0  0  0  0
   54.1810   28.0390  -43.6314 C   0  0  0  0  0  0  0  0  0  0  0  0
   54.4311   28.2300  -44.9866 C   0  0  0  0  0  0  0  0  0  0  0  0
   54.0886   26.6354  -43.1399 C   0  0  0  0  0  0  0  0  0  0  0  0
   53.5807   26.2884  -41.7814 C   0  0  0  0  0  0  0  0  0  0  0  0
   54.5817   30.6850  -49.4950 O   0  0  0  0  0  0  0  0  0  0  0  0
   55.5765   31.1072  -48.6911 C   0  0  0  0  0  0  0  0  0  0  0  0
   56.6568   31.4868  -49.0756 O   0  0  0  0  0  0  0  0  0  0  0  0
   54.7791   29.7118  -46.8590 O   0  0  0  0  0  0  0  0  0  0  0  0
   54.3796   30.5965  -44.6865 C   0  0  0  0  0  0  0  0  0  0  0  0
   54.4460   25.7306  -43.8873 O   0  0  0  0  0  0  0  0  0  0  0  0
   52.4181   26.6569  -41.3206 N   0  0  0  0  0  0  0  0  0  0  0  0
   52.3550   26.1286  -40.0382 O   0  0  0  0  0  0  0  0  0  0  0  0
   53.4738   25.4420  -39.7193 N   0  0  0  0  0  0  0  0  0  0  0  0
   54.2391   25.5248  -40.7688 C   0  0  0  0  0  0  0  0  0  0  0  0
   55.4633   24.9508  -40.8278 N   0  0  0  0  0  0  0  0  0  0  0  0
   54.3568   30.5324  -52.8325 H   0  0  0  0  0  0  0  0  0  0  0  0
   53.5173   29.5596  -51.6485 H   0  0  0  0  0  0  0  0  0  0  0  0
   55.2593   29.4867  -51.7625 H   0  0  0  0  0  0  0  0  0  0  0  0
   53.6636   31.8974  -50.9103 H   0  0  0  0  0  0  0  0  0  0  0  0
   55.4002   31.8324  -51.0257 H   0  0  0  0  0  0  0  0  0  0  0  0
   54.3070   31.6837  -47.1134 H   0  0  0  0  0  0  0  0  0  0  0  0
   55.9784   31.3380  -46.6498 H   0  0  0  0  0  0  0  0  0  0  0  0
   54.0177   31.2411  -42.7213 H   0  0  0  0  0  0  0  0  0  0  0  0
   53.8457   29.0214  -41.8034 H   0  0  0  0  0  0  0  0  0  0  0  0
   54.5431   27.4134  -45.6076 H   0  0  0  0  0  0  0  0  0  0  0  0
   54.4525   31.5479  -45.0797 H   0  0  0  0  0  0  0  0  0  0  0  0
   56.0094   25.0385  -41.6422 H   0  0  0  0  0  0  0  0  0  0  0  0
   55.8078   24.4455  -40.0562 H   0  0  0  0  0  0  0  0  0  0  0  0
  1  2  1  0  0  0  0
  1 22  1  0  0  0  0
  1 23  1  0  0  0  0
  1 24  1  0  0  0  0
  2 11  1  0  0  0  0
  2 25  1  0  0  0  0
  2 26  1  0  0  0  0
  3 12  1  0  0  0  0
  3 14  1  0  0  0  0
  3 27  1  0  0  0  0
  3 28  1  0  0  0  0
  4  8  2  0  0  0  0
  4 14  1  0  0  0  0
  4 15  1  0  0  0  0
  5  6  1  0  0  0  0
  5 15  2  0  0  0  0
  5 29  1  0  0  0  0
  6  7  2  0  0  0  0
  6 30  1  0  0  0  0
  7  8  1  0  0  0  0
  7  9  1  0  0  0  0
  8 31  1  0  0  0  0
  9 10  1  0  0  0  0
  9 16  2  0  0  0  0
 10 17  2  0  0  0  0
 10 20  1  0  0  0  0
 11 12  1  0  0  0  0
 12 13  2  0  0  0  0
 15 32  1  0  0  0  0
 17 18  1  0  0  0  0
 18 19  1  0  0  0  0
 19 20  2  0  0  0  0
 20 21  1  0  0  0  0
 21 33  1  0  0  0  0
 21 34  1  0  0  0  0
M  END
$$$$
