34
1VJ_4OYB_A
C         34.77800       56.99440        7.77080
C         33.50550       57.28560        6.98520
C         33.04750       55.38510        3.83790
C         32.00530       54.56850        1.82250
C         30.97660       53.62520       -0.11520
C         32.21990       53.34070       -0.64000
C         33.36890       53.67050        0.06570
C         33.24610       54.28980        1.30540
C         34.74600       53.39620       -0.43310
C         35.01410       52.59480       -1.66170
O         33.65390       56.74640        5.64020
C         32.74860       55.83290        5.24000
O         31.83000       55.43400        5.91530
O         31.86010       55.19010        3.06350
C         30.86780       54.24170        1.11990
O         35.69590       53.85080        0.19630
N         34.40910       51.47650       -1.95020
O         34.95560       51.07340       -3.16130
N         35.88880       51.94180       -3.60810
C         35.94330       52.88110       -2.70880
N         36.77660       53.94270       -2.81030
H         34.68260       57.38560        8.76200
H         35.61140       57.45620        7.28380
H         34.93370       55.93690        7.81820
H         33.34790       58.34260        6.93400
H         32.66610       56.83210        7.46950
H         33.58620       54.46150        3.87950
H         33.62300       56.15340        3.36530
H         30.12560       53.37810       -0.64420
H         32.29630       52.88080       -1.56070
H         34.09260       54.54120        1.83940
H         29.93740       54.45530        1.51200
H         36.78520       54.63080       -2.10630
H         37.37400       54.02690       -3.58830
