1VJ_4OYB_A
 OpenBabel05121919193D

 34 35  0  0  0  0  0  0  0  0999 V2000
   23.5059   75.4925    9.5023 C   0  0  0  0  0  0  0  0  0  0  0  0
   22.9672   74.7567    8.2818 C   0  0  0  0  0  0  0  0  0  0  0  0
   23.4968   71.1478    7.6319 C   0  0  0  0  0  0  0  0  0  0  0  0
   21.7065   69.5945    7.1886 C   0  0  0  0  0  0  0  0  0  0  0  0
   20.5893   67.7743    8.2570 C   0  0  0  0  0  0  0  0  0  0  0  0
   19.3751   68.3949    8.0506 C   0  0  0  0  0  0  0  0  0  0  0  0
   19.3185   69.6251    7.4099 C   0  0  0  0  0  0  0  0  0  0  0  0
   20.5015   70.2187    6.9814 C   0  0  0  0  0  0  0  0  0  0  0  0
   18.0474   70.3579    7.1500 C   0  0  0  0  0  0  0  0  0  0  0  0
   16.7140   69.8299    7.5587 C   0  0  0  0  0  0  0  0  0  0  0  0
   23.4599   73.3862    8.3082 O   0  0  0  0  0  0  0  0  0  0  0  0
   22.8716   72.5046    7.4770 C   0  0  0  0  0  0  0  0  0  0  0  0
   21.9708   72.7713    6.7178 O   0  0  0  0  0  0  0  0  0  0  0  0
   22.9046   70.1732    6.7676 O   0  0  0  0  0  0  0  0  0  0  0  0
   21.7596   68.3754    7.8254 C   0  0  0  0  0  0  0  0  0  0  0  0
   18.1049   71.4405    6.5757 O   0  0  0  0  0  0  0  0  0  0  0  0
   16.5389   68.9215    8.4774 N   0  0  0  0  0  0  0  0  0  0  0  0
   15.1654   68.7267    8.5342 O   0  0  0  0  0  0  0  0  0  0  0  0
   14.5072   69.5123    7.6543 N   0  0  0  0  0  0  0  0  0  0  0  0
   15.4319   70.1966    7.0455 C   0  0  0  0  0  0  0  0  0  0  0  0
   15.1538   71.1039    6.0805 N   0  0  0  0  0  0  0  0  0  0  0  0
   23.1513   76.5019    9.4954 H   0  0  0  0  0  0  0  0  0  0  0  0
   24.5757   75.4901    9.4768 H   0  0  0  0  0  0  0  0  0  0  0  0
   23.1692   75.0022   10.3917 H   0  0  0  0  0  0  0  0  0  0  0  0
   23.3039   75.2434    7.3903 H   0  0  0  0  0  0  0  0  0  0  0  0
   21.8974   74.7602    8.2966 H   0  0  0  0  0  0  0  0  0  0  0  0
   23.3756   70.8271    8.6456 H   0  0  0  0  0  0  0  0  0  0  0  0
   24.5304   71.2325    7.3687 H   0  0  0  0  0  0  0  0  0  0  0  0
   20.6256   66.8599    8.7341 H   0  0  0  0  0  0  0  0  0  0  0  0
   18.5053   67.9431    8.3736 H   0  0  0  0  0  0  0  0  0  0  0  0
   20.4730   71.1337    6.5049 H   0  0  0  0  0  0  0  0  0  0  0  0
   22.6682   67.9113    7.9808 H   0  0  0  0  0  0  0  0  0  0  0  0
   15.8847   71.5998    5.6457 H   0  0  0  0  0  0  0  0  0  0  0  0
   14.2205   71.2681    5.8134 H   0  0  0  0  0  0  0  0  0  0  0  0
  1  2  1  0  0  0  0
  1 22  1  0  0  0  0
  1 23  1  0  0  0  0
  1 24  1  0  0  0  0
  2 11  1  0  0  0  0
  2 25  1  0  0  0  0
  2 26  1  0  0  0  0
  3 12  1  0  0  0  0
  3 14  1  0  0  0  0
  3 27  1  0  0  0  0
  3 28  1  0  0  0  0
  4  8  2  0  0  0  0
  4 14  1  0  0  0  0
  4 15  1  0  0  0  0
  5  6  1  0  0  0  0
  5 15  2  0  0  0  0
  5 29  1  0  0  0  0
  6  7  2  0  0  0  0
  6 30  1  0  0  0  0
  7  8  1  0  0  0  0
  7  9  1  0  0  0  0
  8 31  1  0  0  0  0
  9 10  1  0  0  0  0
  9 16  2  0  0  0  0
 10 17  2  0  0  0  0
 10 20  1  0  0  0  0
 11 12  1  0  0  0  0
 12 13  2  0  0  0  0
 15 32  1  0  0  0  0
 17 18  1  0  0  0  0
 18 19  1  0  0  0  0
 19 20  2  0  0  0  0
 20 21  1  0  0  0  0
 21 33  1  0  0  0  0
 21 34  1  0  0  0  0
M  END
$$$$
