34
1VJ_4OYB_A
C         -2.20080       52.02560       20.87430
C         -1.22360       51.04740       20.23460
C         -0.41050       47.77850       21.77550
C          0.47960       45.65730       21.05260
C          1.09570       44.10730       19.34360
C          0.09960       43.24890       19.75920
C         -0.71600       43.59010       20.82960
C         -0.51280       44.80690       21.47280
C         -1.81220       42.71790       21.33730
C         -1.89930       41.26380       21.01840
O         -1.29280       49.78200       20.95270
C         -0.14680       49.08720       21.08730
O          0.93530       49.46610       20.70730
O          0.70070       46.88170       21.68470
C          1.28760       45.31560       19.99210
O         -2.67700       43.22120       22.04730
N         -1.09070       40.64550       20.20370
O         -1.52570       39.32700       20.19630
N         -2.59410       39.14320       21.00220
C         -2.84210       40.31270       21.51660
N         -3.85580       40.52820       22.38710
H         -2.16020       52.96070       20.35590
H         -1.93600       52.17480       21.90020
H         -3.19260       51.62830       20.81620
H         -0.23030       51.44080       20.29290
H         -1.47820       50.89760       19.20620
H         -1.26260       47.31710       21.32170
H         -0.58120       47.98310       22.81180
H          1.69940       43.84860       18.54750
H         -0.04010       42.34950       19.27280
H         -1.11160       45.07170       22.27050
H          2.03370       45.95750       19.68140
H         -4.00790       41.42970       22.75220
H         -4.44120       39.78330       22.65520
