1VJ_4OYB_A
 OpenBabel05201912213D

 34 35  0  0  0  0  0  0  0  0999 V2000
   38.9385   38.2502   24.3461 C   0  0  0  0  0  0  0  0  0  0  0  0
   39.0913   38.8568   22.9569 C   0  0  0  0  0  0  0  0  0  0  0  0
   42.7155   38.8836   22.1909 C   0  0  0  0  0  0  0  0  0  0  0  0
   43.7802   41.0432   22.0614 C   0  0  0  0  0  0  0  0  0  0  0  0
   43.7870   43.3814   22.5465 C   0  0  0  0  0  0  0  0  0  0  0  0
   43.7139   43.6640   21.1986 C   0  0  0  0  0  0  0  0  0  0  0  0
   43.6742   42.6336   20.2692 C   0  0  0  0  0  0  0  0  0  0  0  0
   43.7091   41.3172   20.7181 C   0  0  0  0  0  0  0  0  0  0  0  0
   43.5949   42.8571   18.7982 C   0  0  0  0  0  0  0  0  0  0  0  0
   43.1922   44.1630   18.2014 C   0  0  0  0  0  0  0  0  0  0  0  0
   40.4178   38.5329   22.4497 O   0  0  0  0  0  0  0  0  0  0  0  0
   41.4407   39.3049   22.8641 C   0  0  0  0  0  0  0  0  0  0  0  0
   41.3422   40.2058   23.6627 O   0  0  0  0  0  0  0  0  0  0  0  0
   43.8174   39.7300   22.5324 O   0  0  0  0  0  0  0  0  0  0  0  0
   43.8209   42.0670   22.9805 C   0  0  0  0  0  0  0  0  0  0  0  0
   43.8737   41.9253   18.0505 O   0  0  0  0  0  0  0  0  0  0  0  0
   42.4600   45.0508   18.8143 N   0  0  0  0  0  0  0  0  0  0  0  0
   42.3270   46.0950   17.9089 O   0  0  0  0  0  0  0  0  0  0  0  0
   42.9746   45.8443   16.7502 N   0  0  0  0  0  0  0  0  0  0  0  0
   43.5119   44.6689   16.9039 C   0  0  0  0  0  0  0  0  0  0  0  0
   44.2513   44.0717   15.9404 N   0  0  0  0  0  0  0  0  0  0  0  0
   37.9673   38.4808   24.7311 H   0  0  0  0  0  0  0  0  0  0  0  0
   39.6854   38.6554   24.9964 H   0  0  0  0  0  0  0  0  0  0  0  0
   39.0556   37.1883   24.2864 H   0  0  0  0  0  0  0  0  0  0  0  0
   38.9768   39.9192   23.0133 H   0  0  0  0  0  0  0  0  0  0  0  0
   38.3435   38.4611   22.3019 H   0  0  0  0  0  0  0  0  0  0  0  0
   42.5718   38.9170   21.1311 H   0  0  0  0  0  0  0  0  0  0  0  0
   42.9487   37.8937   22.5236 H   0  0  0  0  0  0  0  0  0  0  0  0
   43.8165   44.1514   23.2331 H   0  0  0  0  0  0  0  0  0  0  0  0
   43.6885   44.6451   20.8797 H   0  0  0  0  0  0  0  0  0  0  0  0
   43.6815   40.5422   20.0373 H   0  0  0  0  0  0  0  0  0  0  0  0
   43.8765   41.8557   23.9891 H   0  0  0  0  0  0  0  0  0  0  0  0
   44.6396   43.1810   16.0989 H   0  0  0  0  0  0  0  0  0  0  0  0
   44.4009   44.5280   15.0809 H   0  0  0  0  0  0  0  0  0  0  0  0
  1  2  1  0  0  0  0
  1 22  1  0  0  0  0
  1 23  1  0  0  0  0
  1 24  1  0  0  0  0
  2 11  1  0  0  0  0
  2 25  1  0  0  0  0
  2 26  1  0  0  0  0
  3 12  1  0  0  0  0
  3 14  1  0  0  0  0
  3 27  1  0  0  0  0
  3 28  1  0  0  0  0
  4  8  2  0  0  0  0
  4 14  1  0  0  0  0
  4 15  1  0  0  0  0
  5  6  1  0  0  0  0
  5 15  2  0  0  0  0
  5 29  1  0  0  0  0
  6  7  2  0  0  0  0
  6 30  1  0  0  0  0
  7  8  1  0  0  0  0
  7  9  1  0  0  0  0
  8 31  1  0  0  0  0
  9 10  1  0  0  0  0
  9 16  2  0  0  0  0
 10 17  2  0  0  0  0
 10 20  1  0  0  0  0
 11 12  1  0  0  0  0
 12 13  2  0  0  0  0
 15 32  1  0  0  0  0
 17 18  1  0  0  0  0
 18 19  1  0  0  0  0
 19 20  2  0  0  0  0
 20 21  1  0  0  0  0
 21 33  1  0  0  0  0
 21 34  1  0  0  0  0
M  END
$$$$
