34
1VJ_4OYB_A
C        -24.47520       17.03810       27.47850
C        -24.96990       17.79720       26.25360
C        -22.54570       16.86740       23.61210
C        -20.35610       15.85850       23.56620
C        -18.59070       14.48450       22.73070
C        -18.78000       13.60230       23.77380
C        -19.76210       13.84410       24.72460
C        -20.54880       14.98570       24.60810
C        -20.02780       12.94010       25.87890
C        -21.21320       13.09690       26.76990
O        -24.33880       17.23250       25.06850
C        -23.01360       17.42630       24.92530
O        -22.30690       17.97200       25.73890
O        -21.13340       17.00980       23.43170
C        -19.38040       15.61700       22.62590
O        -19.23580       12.03010       26.10180
N        -21.93690       14.17930       26.83840
O        -22.91850       13.89730       27.77890
N        -22.79320       12.64960       28.28110
C        -21.75760       12.13940       27.68010
N        -21.31510       10.88410       27.92550
H        -24.93150       17.44310       28.35740
H        -23.41210       17.13380       27.55210
H        -24.73470       16.00420       27.38610
H        -24.71010       18.83140       26.34180
H        -26.03360       17.71150       26.17640
H        -23.04720       17.38390       22.82050
H        -22.77230       15.82170       23.60300
H        -17.85880       14.30000       22.02670
H        -18.18930       12.75940       23.84780
H        -21.28150       15.17740       25.30910
H        -19.23810       16.27740       21.84570
H        -20.52710       10.53770       27.44780
H        -21.78140       10.31730       28.58180
