1VJ_4OYB_A
 OpenBabel05181904533D

 34 35  0  0  0  0  0  0  0  0999 V2000
   18.6469   51.7696   18.6420 C   0  0  0  0  0  0  0  0  0  0  0  0
   19.3928   53.0489   18.2836 C   0  0  0  0  0  0  0  0  0  0  0  0
   17.3945   56.1298   17.7912 C   0  0  0  0  0  0  0  0  0  0  0  0
   16.4288   58.3368   17.8947 C   0  0  0  0  0  0  0  0  0  0  0  0
   15.0380   60.2390   18.2821 C   0  0  0  0  0  0  0  0  0  0  0  0
   14.5699   60.1639   16.9871 C   0  0  0  0  0  0  0  0  0  0  0  0
   15.0309   59.1710   16.1334 C   0  0  0  0  0  0  0  0  0  0  0  0
   15.9685   58.2572   16.6039 C   0  0  0  0  0  0  0  0  0  0  0  0
   14.5741   59.0237   14.7227 C   0  0  0  0  0  0  0  0  0  0  0  0
   15.1540   58.0167   13.7882 C   0  0  0  0  0  0  0  0  0  0  0  0
   18.4297   54.0328   17.8080 O   0  0  0  0  0  0  0  0  0  0  0  0
   18.4442   55.2434   18.3981 C   0  0  0  0  0  0  0  0  0  0  0  0
   19.1954   55.5656   19.2874 O   0  0  0  0  0  0  0  0  0  0  0  0
   17.3699   57.4310   18.3860 O   0  0  0  0  0  0  0  0  0  0  0  0
   15.9710   59.3233   18.7384 C   0  0  0  0  0  0  0  0  0  0  0  0
   13.6835   59.7637   14.3175 O   0  0  0  0  0  0  0  0  0  0  0  0
   16.2027   57.2903   14.0570 N   0  0  0  0  0  0  0  0  0  0  0  0
   16.3947   56.5037   12.9290 O   0  0  0  0  0  0  0  0  0  0  0  0
   15.4677   56.7501   11.9779 N   0  0  0  0  0  0  0  0  0  0  0  0
   14.6972   57.6716   12.4790 C   0  0  0  0  0  0  0  0  0  0  0  0
   13.6386   58.1832   11.8087 N   0  0  0  0  0  0  0  0  0  0  0  0
   19.3433   51.0373   18.9934 H   0  0  0  0  0  0  0  0  0  0  0  0
   18.1431   51.3958   17.7753 H   0  0  0  0  0  0  0  0  0  0  0  0
   17.9305   51.9775   19.4091 H   0  0  0  0  0  0  0  0  0  0  0  0
   20.1087   52.8450   17.5151 H   0  0  0  0  0  0  0  0  0  0  0  0
   19.9047   53.4259   19.1442 H   0  0  0  0  0  0  0  0  0  0  0  0
   16.4372   55.6715   17.9271 H   0  0  0  0  0  0  0  0  0  0  0  0
   17.6279   56.2493   16.7538 H   0  0  0  0  0  0  0  0  0  0  0  0
   14.6921   60.9794   18.9125 H   0  0  0  0  0  0  0  0  0  0  0  0
   13.8743   60.8483   16.6513 H   0  0  0  0  0  0  0  0  0  0  0  0
   16.3200   57.5151   15.9788 H   0  0  0  0  0  0  0  0  0  0  0  0
   16.3219   59.3802   19.7073 H   0  0  0  0  0  0  0  0  0  0  0  0
   13.0818   58.8797   12.2258 H   0  0  0  0  0  0  0  0  0  0  0  0
   13.4253   57.8587   10.9039 H   0  0  0  0  0  0  0  0  0  0  0  0
  1  2  1  0  0  0  0
  1 22  1  0  0  0  0
  1 23  1  0  0  0  0
  1 24  1  0  0  0  0
  2 11  1  0  0  0  0
  2 25  1  0  0  0  0
  2 26  1  0  0  0  0
  3 12  1  0  0  0  0
  3 14  1  0  0  0  0
  3 27  1  0  0  0  0
  3 28  1  0  0  0  0
  4  8  2  0  0  0  0
  4 14  1  0  0  0  0
  4 15  1  0  0  0  0
  5  6  1  0  0  0  0
  5 15  2  0  0  0  0
  5 29  1  0  0  0  0
  6  7  2  0  0  0  0
  6 30  1  0  0  0  0
  7  8  1  0  0  0  0
  7  9  1  0  0  0  0
  8 31  1  0  0  0  0
  9 10  1  0  0  0  0
  9 16  2  0  0  0  0
 10 17  2  0  0  0  0
 10 20  1  0  0  0  0
 11 12  1  0  0  0  0
 12 13  2  0  0  0  0
 15 32  1  0  0  0  0
 17 18  1  0  0  0  0
 18 19  1  0  0  0  0
 19 20  2  0  0  0  0
 20 21  1  0  0  0  0
 21 33  1  0  0  0  0
 21 34  1  0  0  0  0
M  END
$$$$
