1VJ_4OYB_A
 OpenBabel05191921153D

 34 35  0  0  0  0  0  0  0  0999 V2000
   21.5946   33.9817   -8.3347 C   0  0  0  0  0  0  0  0  0  0  0  0
   20.7811   35.2477   -8.0967 C   0  0  0  0  0  0  0  0  0  0  0  0
   18.4527   35.1761   -5.2159 C   0  0  0  0  0  0  0  0  0  0  0  0
   16.9699   36.3447   -3.7159 C   0  0  0  0  0  0  0  0  0  0  0  0
   15.4832   38.0223   -2.8925 C   0  0  0  0  0  0  0  0  0  0  0  0
   14.4158   37.1671   -3.0695 C   0  0  0  0  0  0  0  0  0  0  0  0
   14.6192   35.8899   -3.5741 C   0  0  0  0  0  0  0  0  0  0  0  0
   15.9119   35.4888   -3.8964 C   0  0  0  0  0  0  0  0  0  0  0  0
   13.5194   34.9089   -3.7936 C   0  0  0  0  0  0  0  0  0  0  0  0
   12.1866   35.0310   -3.1361 C   0  0  0  0  0  0  0  0  0  0  0  0
   19.6865   34.9350   -7.1879 O   0  0  0  0  0  0  0  0  0  0  0  0
   19.6039   35.6555   -6.0530 C   0  0  0  0  0  0  0  0  0  0  0  0
   20.3508   36.5569   -5.7552 O   0  0  0  0  0  0  0  0  0  0  0  0
   18.2739   35.9625   -4.0340 O   0  0  0  0  0  0  0  0  0  0  0  0
   16.7649   37.6110   -3.2169 C   0  0  0  0  0  0  0  0  0  0  0  0
   13.7232   33.9629   -4.5478 O   0  0  0  0  0  0  0  0  0  0  0  0
   11.0670   35.2027   -3.7818 N   0  0  0  0  0  0  0  0  0  0  0  0
   10.0897   35.2663   -2.7977 O   0  0  0  0  0  0  0  0  0  0  0  0
   10.6114   35.1343   -1.5587 N   0  0  0  0  0  0  0  0  0  0  0  0
   11.8923   34.9891   -1.7385 C   0  0  0  0  0  0  0  0  0  0  0  0
   12.7605   34.8266   -0.7130 N   0  0  0  0  0  0  0  0  0  0  0  0
   22.4031   34.1973   -9.0015 H   0  0  0  0  0  0  0  0  0  0  0  0
   20.9669   33.2303   -8.7665 H   0  0  0  0  0  0  0  0  0  0  0  0
   21.9850   33.6282   -7.4033 H   0  0  0  0  0  0  0  0  0  0  0  0
   20.3874   35.6027   -9.0261 H   0  0  0  0  0  0  0  0  0  0  0  0
   21.4036   36.0065   -7.6706 H   0  0  0  0  0  0  0  0  0  0  0  0
   18.6352   34.1614   -4.9294 H   0  0  0  0  0  0  0  0  0  0  0  0
   17.5629   35.2632   -5.8038 H   0  0  0  0  0  0  0  0  0  0  0  0
   15.3262   38.9709   -2.5173 H   0  0  0  0  0  0  0  0  0  0  0  0
   13.4623   37.4777   -2.8260 H   0  0  0  0  0  0  0  0  0  0  0  0
   16.0762   34.5423   -4.2735 H   0  0  0  0  0  0  0  0  0  0  0  0
   17.5634   38.2514   -3.0852 H   0  0  0  0  0  0  0  0  0  0  0  0
   13.7222   34.7202   -0.8944 H   0  0  0  0  0  0  0  0  0  0  0  0
   12.4302   34.8149    0.2144 H   0  0  0  0  0  0  0  0  0  0  0  0
  1  2  1  0  0  0  0
  1 22  1  0  0  0  0
  1 23  1  0  0  0  0
  1 24  1  0  0  0  0
  2 11  1  0  0  0  0
  2 25  1  0  0  0  0
  2 26  1  0  0  0  0
  3 12  1  0  0  0  0
  3 14  1  0  0  0  0
  3 27  1  0  0  0  0
  3 28  1  0  0  0  0
  4  8  2  0  0  0  0
  4 14  1  0  0  0  0
  4 15  1  0  0  0  0
  5  6  1  0  0  0  0
  5 15  2  0  0  0  0
  5 29  1  0  0  0  0
  6  7  2  0  0  0  0
  6 30  1  0  0  0  0
  7  8  1  0  0  0  0
  7  9  1  0  0  0  0
  8 31  1  0  0  0  0
  9 10  1  0  0  0  0
  9 16  2  0  0  0  0
 10 17  2  0  0  0  0
 10 20  1  0  0  0  0
 11 12  1  0  0  0  0
 12 13  2  0  0  0  0
 15 32  1  0  0  0  0
 17 18  1  0  0  0  0
 18 19  1  0  0  0  0
 19 20  2  0  0  0  0
 20 21  1  0  0  0  0
 21 33  1  0  0  0  0
 21 34  1  0  0  0  0
M  END
$$$$
