1VJ_4OYB_A
 OpenBabel05201911583D

 34 35  0  0  0  0  0  0  0  0999 V2000
   64.4215   82.6888   14.5231 C   0  0  0  0  0  0  0  0  0  0  0  0
   63.0656   82.0315   14.7481 C   0  0  0  0  0  0  0  0  0  0  0  0
   59.9451   82.9625   12.9880 C   0  0  0  0  0  0  0  0  0  0  0  0
   57.7454   82.4594   13.8382 C   0  0  0  0  0  0  0  0  0  0  0  0
   55.5385   82.0574   14.6571 C   0  0  0  0  0  0  0  0  0  0  0  0
   55.8794   82.6297   15.8647 C   0  0  0  0  0  0  0  0  0  0  0  0
   57.1614   83.1219   16.0682 C   0  0  0  0  0  0  0  0  0  0  0  0
   58.0922   83.0288   15.0383 C   0  0  0  0  0  0  0  0  0  0  0  0
   57.6059   83.7534   17.3425 C   0  0  0  0  0  0  0  0  0  0  0  0
   58.9963   84.2487   17.5551 C   0  0  0  0  0  0  0  0  0  0  0  0
   62.0948   82.6464   13.8528 O   0  0  0  0  0  0  0  0  0  0  0  0
   60.8569   82.1163   13.8297 C   0  0  0  0  0  0  0  0  0  0  0  0
   60.5312   81.1053   14.4048 O   0  0  0  0  0  0  0  0  0  0  0  0
   58.6642   82.3552   12.7930 O   0  0  0  0  0  0  0  0  0  0  0  0
   56.4740   81.9710   13.6400 C   0  0  0  0  0  0  0  0  0  0  0  0
   56.7907   83.8688   18.2520 O   0  0  0  0  0  0  0  0  0  0  0  0
   59.7479   84.7418   16.6107 N   0  0  0  0  0  0  0  0  0  0  0  0
   60.9431   85.0701   17.2362 O   0  0  0  0  0  0  0  0  0  0  0  0
   60.9198   84.7782   18.5550 N   0  0  0  0  0  0  0  0  0  0  0  0
   59.7399   84.2747   18.7749 C   0  0  0  0  0  0  0  0  0  0  0  0
   59.3398   83.8578   19.9988 N   0  0  0  0  0  0  0  0  0  0  0  0
   65.1450   82.2460   15.1753 H   0  0  0  0  0  0  0  0  0  0  0  0
   64.3489   83.7361   14.7296 H   0  0  0  0  0  0  0  0  0  0  0  0
   64.7229   82.5457   13.5065 H   0  0  0  0  0  0  0  0  0  0  0  0
   62.7601   82.1746   15.7635 H   0  0  0  0  0  0  0  0  0  0  0  0
   63.1314   80.9822   14.5496 H   0  0  0  0  0  0  0  0  0  0  0  0
   60.4023   83.1150   12.0327 H   0  0  0  0  0  0  0  0  0  0  0  0
   59.7925   83.8887   13.5017 H   0  0  0  0  0  0  0  0  0  0  0  0
   54.5840   81.6929   14.5113 H   0  0  0  0  0  0  0  0  0  0  0  0
   55.1788   82.6924   16.6199 H   0  0  0  0  0  0  0  0  0  0  0  0
   59.0489   83.3898   15.1775 H   0  0  0  0  0  0  0  0  0  0  0  0
   56.2189   81.5419   12.7367 H   0  0  0  0  0  0  0  0  0  0  0  0
   58.4377   83.4828   20.1205 H   0  0  0  0  0  0  0  0  0  0  0  0
   59.9508   83.9297   20.7674 H   0  0  0  0  0  0  0  0  0  0  0  0
  1  2  1  0  0  0  0
  1 22  1  0  0  0  0
  1 23  1  0  0  0  0
  1 24  1  0  0  0  0
  2 11  1  0  0  0  0
  2 25  1  0  0  0  0
  2 26  1  0  0  0  0
  3 12  1  0  0  0  0
  3 14  1  0  0  0  0
  3 27  1  0  0  0  0
  3 28  1  0  0  0  0
  4  8  2  0  0  0  0
  4 14  1  0  0  0  0
  4 15  1  0  0  0  0
  5  6  1  0  0  0  0
  5 15  2  0  0  0  0
  5 29  1  0  0  0  0
  6  7  2  0  0  0  0
  6 30  1  0  0  0  0
  7  8  1  0  0  0  0
  7  9  1  0  0  0  0
  8 31  1  0  0  0  0
  9 10  1  0  0  0  0
  9 16  2  0  0  0  0
 10 17  2  0  0  0  0
 10 20  1  0  0  0  0
 11 12  1  0  0  0  0
 12 13  2  0  0  0  0
 15 32  1  0  0  0  0
 17 18  1  0  0  0  0
 18 19  1  0  0  0  0
 19 20  2  0  0  0  0
 20 21  1  0  0  0  0
 21 33  1  0  0  0  0
 21 34  1  0  0  0  0
M  END
$$$$
