34
1VJ_4OYB_A
C         38.93850       38.25020       24.34610
C         39.09130       38.85680       22.95690
C         42.71550       38.88360       22.19090
C         43.78020       41.04320       22.06140
C         43.78700       43.38140       22.54650
C         43.71390       43.66400       21.19860
C         43.67420       42.63360       20.26920
C         43.70910       41.31720       20.71810
C         43.59490       42.85710       18.79820
C         43.19220       44.16300       18.20140
O         40.41780       38.53290       22.44970
C         41.44070       39.30490       22.86410
O         41.34220       40.20580       23.66270
O         43.81740       39.73000       22.53240
C         43.82090       42.06700       22.98050
O         43.87370       41.92530       18.05050
N         42.46000       45.05080       18.81430
O         42.32700       46.09500       17.90890
N         42.97460       45.84430       16.75020
C         43.51190       44.66890       16.90390
N         44.25130       44.07170       15.94040
H         37.96730       38.48080       24.73110
H         39.68540       38.65540       24.99640
H         39.05560       37.18830       24.28640
H         38.97680       39.91920       23.01330
H         38.34350       38.46110       22.30190
H         42.57180       38.91700       21.13110
H         42.94870       37.89370       22.52360
H         43.81650       44.15140       23.23310
H         43.68850       44.64510       20.87970
H         43.68150       40.54220       20.03730
H         43.87650       41.85570       23.98910
H         44.63960       43.18100       16.09890
H         44.40090       44.52800       15.08090
