1VJ_4OYB_A
 OpenBabel05191901193D

 34 35  0  0  0  0  0  0  0  0999 V2000
  -24.4752   17.0381   27.4785 C   0  0  0  0  0  0  0  0  0  0  0  0
  -24.9699   17.7972   26.2536 C   0  0  0  0  0  0  0  0  0  0  0  0
  -22.5457   16.8674   23.6121 C   0  0  0  0  0  0  0  0  0  0  0  0
  -20.3561   15.8585   23.5662 C   0  0  0  0  0  0  0  0  0  0  0  0
  -18.5907   14.4845   22.7307 C   0  0  0  0  0  0  0  0  0  0  0  0
  -18.7800   13.6023   23.7738 C   0  0  0  0  0  0  0  0  0  0  0  0
  -19.7621   13.8441   24.7246 C   0  0  0  0  0  0  0  0  0  0  0  0
  -20.5488   14.9857   24.6081 C   0  0  0  0  0  0  0  0  0  0  0  0
  -20.0278   12.9401   25.8789 C   0  0  0  0  0  0  0  0  0  0  0  0
  -21.2132   13.0969   26.7699 C   0  0  0  0  0  0  0  0  0  0  0  0
  -24.3388   17.2325   25.0685 O   0  0  0  0  0  0  0  0  0  0  0  0
  -23.0136   17.4263   24.9253 C   0  0  0  0  0  0  0  0  0  0  0  0
  -22.3069   17.9720   25.7389 O   0  0  0  0  0  0  0  0  0  0  0  0
  -21.1334   17.0098   23.4317 O   0  0  0  0  0  0  0  0  0  0  0  0
  -19.3804   15.6170   22.6259 C   0  0  0  0  0  0  0  0  0  0  0  0
  -19.2358   12.0301   26.1018 O   0  0  0  0  0  0  0  0  0  0  0  0
  -21.9369   14.1793   26.8384 N   0  0  0  0  0  0  0  0  0  0  0  0
  -22.9185   13.8973   27.7789 O   0  0  0  0  0  0  0  0  0  0  0  0
  -22.7932   12.6496   28.2811 N   0  0  0  0  0  0  0  0  0  0  0  0
  -21.7576   12.1394   27.6801 C   0  0  0  0  0  0  0  0  0  0  0  0
  -21.3151   10.8841   27.9255 N   0  0  0  0  0  0  0  0  0  0  0  0
  -24.9315   17.4431   28.3574 H   0  0  0  0  0  0  0  0  0  0  0  0
  -23.4121   17.1338   27.5521 H   0  0  0  0  0  0  0  0  0  0  0  0
  -24.7347   16.0042   27.3861 H   0  0  0  0  0  0  0  0  0  0  0  0
  -24.7101   18.8314   26.3418 H   0  0  0  0  0  0  0  0  0  0  0  0
  -26.0336   17.7115   26.1764 H   0  0  0  0  0  0  0  0  0  0  0  0
  -23.0472   17.3839   22.8205 H   0  0  0  0  0  0  0  0  0  0  0  0
  -22.7723   15.8217   23.6030 H   0  0  0  0  0  0  0  0  0  0  0  0
  -17.8588   14.3000   22.0267 H   0  0  0  0  0  0  0  0  0  0  0  0
  -18.1893   12.7594   23.8478 H   0  0  0  0  0  0  0  0  0  0  0  0
  -21.2815   15.1774   25.3091 H   0  0  0  0  0  0  0  0  0  0  0  0
  -19.2381   16.2774   21.8457 H   0  0  0  0  0  0  0  0  0  0  0  0
  -20.5271   10.5377   27.4478 H   0  0  0  0  0  0  0  0  0  0  0  0
  -21.7814   10.3173   28.5818 H   0  0  0  0  0  0  0  0  0  0  0  0
  1  2  1  0  0  0  0
  1 22  1  0  0  0  0
  1 23  1  0  0  0  0
  1 24  1  0  0  0  0
  2 11  1  0  0  0  0
  2 25  1  0  0  0  0
  2 26  1  0  0  0  0
  3 12  1  0  0  0  0
  3 14  1  0  0  0  0
  3 27  1  0  0  0  0
  3 28  1  0  0  0  0
  4  8  2  0  0  0  0
  4 14  1  0  0  0  0
  4 15  1  0  0  0  0
  5  6  1  0  0  0  0
  5 15  2  0  0  0  0
  5 29  1  0  0  0  0
  6  7  2  0  0  0  0
  6 30  1  0  0  0  0
  7  8  1  0  0  0  0
  7  9  1  0  0  0  0
  8 31  1  0  0  0  0
  9 10  1  0  0  0  0
  9 16  2  0  0  0  0
 10 17  2  0  0  0  0
 10 20  1  0  0  0  0
 11 12  1  0  0  0  0
 12 13  2  0  0  0  0
 15 32  1  0  0  0  0
 17 18  1  0  0  0  0
 18 19  1  0  0  0  0
 19 20  2  0  0  0  0
 20 21  1  0  0  0  0
 21 33  1  0  0  0  0
 21 34  1  0  0  0  0
M  END
$$$$
