34
1VJ_4OYB_A
C          6.88160       67.02900      -41.02330
C          8.03750       66.69080      -41.95640
C          7.63680       69.47840      -44.36290
C          8.75550       71.57250      -43.94180
C          9.91360       73.64220      -43.66220
C         11.05790       72.95750      -43.31050
C         11.05820       71.56980      -43.27110
C          9.89040       70.88450      -43.59090
C         12.25250       70.75910      -42.90150
C         13.58930       71.36570      -42.63910
O          7.90420       67.48420      -43.17080
C          7.85160       68.82260      -43.02890
O          7.96170       69.40720      -41.97760
O          7.57360       70.90450      -44.26500
C          8.75770       72.94850      -43.97850
O         12.12630       69.54220      -42.81030
N         13.80390       72.64860      -42.54980
O         15.16530       72.76980      -42.30550
N         15.77690       71.56680      -42.24650
C         14.83460       70.69180      -42.44750
N         15.06620       69.35840      -42.46030
H          6.96720       66.45250      -40.12600
H          5.95460       66.80100      -41.50670
H          6.91120       68.07100      -40.78190
H          8.00960       65.64970      -42.20160
H          8.96890       66.91030      -41.47770
H          6.71730       69.12110      -44.77740
H          8.47020       69.23050      -44.98660
H          9.91880       74.67390      -43.68960
H         11.91720       73.47860      -43.07580
H          9.87730       69.85300      -43.56420
H          7.90130       73.46110      -44.24080
H         14.32350       68.73130      -42.61610
H         15.97740       69.01560      -42.31360
