34
1VJ_4OYB_A
C         18.64690       51.76960       18.64200
C         19.39280       53.04890       18.28360
C         17.39450       56.12980       17.79120
C         16.42880       58.33680       17.89470
C         15.03800       60.23900       18.28210
C         14.56990       60.16390       16.98710
C         15.03090       59.17100       16.13340
C         15.96850       58.25720       16.60390
C         14.57410       59.02370       14.72270
C         15.15400       58.01670       13.78820
O         18.42970       54.03280       17.80800
C         18.44420       55.24340       18.39810
O         19.19540       55.56560       19.28740
O         17.36990       57.43100       18.38600
C         15.97100       59.32330       18.73840
O         13.68350       59.76370       14.31750
N         16.20270       57.29030       14.05700
O         16.39470       56.50370       12.92900
N         15.46770       56.75010       11.97790
C         14.69720       57.67160       12.47900
N         13.63860       58.18320       11.80870
H         19.34330       51.03730       18.99340
H         18.14310       51.39580       17.77530
H         17.93050       51.97750       19.40910
H         20.10870       52.84500       17.51510
H         19.90470       53.42590       19.14420
H         16.43720       55.67150       17.92710
H         17.62790       56.24930       16.75380
H         14.69210       60.97940       18.91250
H         13.87430       60.84830       16.65130
H         16.32000       57.51510       15.97880
H         16.32190       59.38020       19.70730
H         13.08180       58.87970       12.22580
H         13.42530       57.85870       10.90390
