omegacsd_HEHVOF
 OpenBabel05011923213D

 51 53  0  0  1  0  0  0  0  0999 V2000
   18.0748  -10.2107   11.6845 N   0  0  0  0  0  0  0  0  0  0  0  0
   18.5224   -9.8647   10.5153 C   0  0  0  0  0  0  0  0  0  0  0  0
   18.9075   -8.5601   10.2304 N   0  0  0  0  0  0  0  0  0  0  0  0
   19.4096   -8.1449    8.9668 N   0  0  0  0  0  0  0  0  0  0  0  0
   18.5876   -8.0668    7.8506 C   0  0  0  0  0  0  0  0  0  0  0  0
   18.9766   -8.1943    6.6852 O   0  0  0  0  0  0  0  0  0  0  0  0
   17.1163   -7.7588    8.1217 C   0  0  0  0  0  0  0  0  0  0  0  0
   20.6518   -7.5487    8.8910 C   0  0  0  0  0  0  0  0  0  0  0  0
   20.8591   -6.6335    8.0882 O   0  0  0  0  0  0  0  0  0  0  0  0
   21.7521   -7.9658    9.8661 C   0  0  2  0  0  0  0  0  0  0  0  0
   22.0188   -6.9026   10.9100 C   0  0  0  0  0  0  0  0  0  0  0  0
   22.9927   -8.5655    9.2164 C   0  0  0  0  0  0  0  0  0  0  0  0
   23.2777   -8.4613    7.8599 C   0  0  0  0  0  0  0  0  0  0  0  0
   24.4541   -8.9661    7.3212 C   0  0  0  0  0  0  0  0  0  0  0  0
   25.3751   -9.5917    8.1331 C   0  0  0  0  0  0  0  0  0  0  0  0
   25.1152   -9.7237    9.4792 C   0  0  0  0  0  0  0  0  0  0  0  0
   23.9364   -9.2207   10.0092 C   0  0  0  0  0  0  0  0  0  0  0  0
   18.5483   -7.5111   11.0738 C   0  0  0  0  0  0  0  0  0  0  0  0
   18.5491   -6.3299   10.7385 O   0  0  0  0  0  0  0  0  0  0  0  0
   18.1669   -7.8989   12.4339 C   0  0  0  0  0  0  0  0  0  0  0  0
   18.0766   -6.9579   13.4521 C   0  0  0  0  0  0  0  0  0  0  0  0
   17.8042   -7.3668   14.7436 C   0  0  0  0  0  0  0  0  0  0  0  0
   17.6016   -8.7057   15.0099 C   0  0  0  0  0  0  0  0  0  0  0  0
   17.6762   -9.6368   13.9850 C   0  0  0  0  0  0  0  0  0  0  0  0
   17.9704   -9.2460   12.6860 C   0  0  0  0  0  0  0  0  0  0  0  0
   18.6558  -10.9793    9.4669 C   0  0  0  0  0  0  0  0  0  0  0  0
   18.1957  -12.3276    9.9963 C   0  0  0  0  0  0  0  0  0  0  0  0
   17.8383  -10.6930    8.2394 C   0  0  0  0  0  0  0  0  0  0  0  0
   16.9297   -7.6216    9.1782 H   0  0  0  0  0  0  0  0  0  0  0  0
   16.4882   -8.5721    7.7649 H   0  0  0  0  0  0  0  0  0  0  0  0
   16.8311   -6.8516    7.5974 H   0  0  0  0  0  0  0  0  0  0  0  0
   21.3822   -8.8259   10.4154 H   0  0  0  0  0  0  0  0  0  0  0  0
   22.3928   -5.9898   10.4525 H   0  0  0  0  0  0  0  0  0  0  0  0
   22.7508   -7.2492   11.6380 H   0  0  0  0  0  0  0  0  0  0  0  0
   21.1010   -6.6643   11.4466 H   0  0  0  0  0  0  0  0  0  0  0  0
   22.5829   -7.9707    7.1998 H   0  0  0  0  0  0  0  0  0  0  0  0
   24.6507   -8.8683    6.2665 H   0  0  0  0  0  0  0  0  0  0  0  0
   26.2906   -9.9754    7.7176 H   0  0  0  0  0  0  0  0  0  0  0  0
   25.8297  -10.2161   10.1165 H   0  0  0  0  0  0  0  0  0  0  0  0
   23.7531   -9.3345   11.0646 H   0  0  0  0  0  0  0  0  0  0  0  0
   18.2263   -5.9124   13.2422 H   0  0  0  0  0  0  0  0  0  0  0  0
   17.7496   -6.6439   15.5403 H   0  0  0  0  0  0  0  0  0  0  0  0
   17.3841   -9.0259   16.0153 H   0  0  0  0  0  0  0  0  0  0  0  0
   17.5077  -10.6779   14.2033 H   0  0  0  0  0  0  0  0  0  0  0  0
   19.7090  -11.0521    9.1920 H   0  0  0  0  0  0  0  0  0  0  0  0
   17.1402  -12.2824   10.2688 H   0  0  0  0  0  0  0  0  0  0  0  0
   18.7671  -12.6049   10.8790 H   0  0  0  0  0  0  0  0  0  0  0  0
   18.3217  -13.1048    9.2440 H   0  0  0  0  0  0  0  0  0  0  0  0
   16.7850  -10.5863    8.4821 H   0  0  0  0  0  0  0  0  0  0  0  0
   17.9669  -11.4277    7.4634 H   0  0  0  0  0  0  0  0  0  0  0  0
   18.1432   -9.8070    7.7969 H   0  0  0  0  0  0  0  0  0  0  0  0
  1  2  2  0  0  0  0
  1 25  1  0  0  0  0
  2  3  1  0  0  0  0
  2 26  1  0  0  0  0
  3 18  1  0  0  0  0
  3  4  1  0  0  0  0
  4  8  1  0  0  0  0
  4  5  1  0  0  0  0
  5  7  1  0  0  0  0
  5  6  2  0  0  0  0
  7 29  1  0  0  0  0
  7 30  1  0  0  0  0
  7 31  1  0  0  0  0
  8  9  2  0  0  0  0
 10 11  1  0  0  0  0
 10 12  1  0  0  0  0
 10  8  1  0  0  0  0
 10 32  1  1  0  0  0
 11 33  1  0  0  0  0
 11 34  1  0  0  0  0
 11 35  1  0  0  0  0
 12 13  2  0  0  0  0
 12 17  1  0  0  0  0
 13 14  1  0  0  0  0
 13 36  1  0  0  0  0
 14 15  2  0  0  0  0
 14 37  1  0  0  0  0
 15 16  1  0  0  0  0
 15 38  1  0  0  0  0
 16 17  2  0  0  0  0
 16 39  1  0  0  0  0
 17 40  1  0  0  0  0
 18 20  1  0  0  0  0
 18 19  2  0  0  0  0
 20 21  1  0  0  0  0
 20 25  2  0  0  0  0
 21 22  2  0  0  0  0
 21 41  1  0  0  0  0
 22 23  1  0  0  0  0
 22 42  1  0  0  0  0
 23 24  2  0  0  0  0
 23 43  1  0  0  0  0
 24 25  1  0  0  0  0
 24 44  1  0  0  0  0
 26 28  1  0  0  0  0
 26 27  1  0  0  0  0
 26 45  1  0  0  0  0
 27 46  1  0  0  0  0
 27 47  1  0  0  0  0
 27 48  1  0  0  0  0
 28 49  1  0  0  0  0
 28 50  1  0  0  0  0
 28 51  1  0  0  0  0
M  END
$$$$
