omegacsd_HEHVOF
 OpenBabel05201900363D

 51 53  0  0  1  0  0  0  0  0999 V2000
    7.4558   -5.3514    4.1925 N   0  0  0  0  0  0  0  0  0  0  0  0
    6.9934   -5.3660    2.9846 C   0  0  0  0  0  0  0  0  0  0  0  0
    5.8191   -4.6929    2.6080 N   0  0  0  0  0  0  0  0  0  0  0  0
    5.4007   -4.6617    1.2216 N   0  0  0  0  0  0  0  0  0  0  0  0
    4.0463   -4.9006    1.0063 C   0  0  0  0  0  0  0  0  0  0  0  0
    3.1239   -4.1372    1.2649 O   0  0  0  0  0  0  0  0  0  0  0  0
    3.7457   -6.1731    0.2586 C   0  0  0  0  0  0  0  0  0  0  0  0
    6.0518   -3.8233    0.3064 C   0  0  0  0  0  0  0  0  0  0  0  0
    5.4121   -3.2186   -0.5595 O   0  0  0  0  0  0  0  0  0  0  0  0
    7.6040   -3.7535    0.3029 C   0  0  2  0  0  0  0  0  0  0  0  0
    8.1534   -3.2429    1.6118 C   0  0  0  0  0  0  0  0  0  0  0  0
    8.2378   -3.2067   -0.9549 C   0  0  0  0  0  0  0  0  0  0  0  0
    9.3891   -2.4364   -0.9291 C   0  0  0  0  0  0  0  0  0  0  0  0
    9.9849   -2.0029   -2.1010 C   0  0  0  0  0  0  0  0  0  0  0  0
    9.4469   -2.3529   -3.3198 C   0  0  0  0  0  0  0  0  0  0  0  0
    8.3057   -3.1221   -3.3657 C   0  0  0  0  0  0  0  0  0  0  0  0
    7.7124   -3.5477   -2.1942 C   0  0  0  0  0  0  0  0  0  0  0  0
    5.0522   -4.0018    3.5453 C   0  0  0  0  0  0  0  0  0  0  0  0
    3.9266   -3.5656    3.3611 O   0  0  0  0  0  0  0  0  0  0  0  0
    5.6562   -3.8550    4.8763 C   0  0  0  0  0  0  0  0  0  0  0  0
    5.0902   -3.0263    5.8402 C   0  0  0  0  0  0  0  0  0  0  0  0
    5.7242   -2.8492    7.0548 C   0  0  0  0  0  0  0  0  0  0  0  0
    6.9048   -3.5142    7.3142 C   0  0  0  0  0  0  0  0  0  0  0  0
    7.4542   -4.3524    6.3585 C   0  0  0  0  0  0  0  0  0  0  0  0
    6.8423   -4.5256    5.1274 C   0  0  0  0  0  0  0  0  0  0  0  0
    7.6718   -6.2895    1.9709 C   0  0  0  0  0  0  0  0  0  0  0  0
    9.0465   -6.7268    2.4449 C   0  0  0  0  0  0  0  0  0  0  0  0
    6.8582   -7.4922    1.6225 C   0  0  0  0  0  0  0  0  0  0  0  0
    4.6402   -6.7445    0.0691 H   0  0  0  0  0  0  0  0  0  0  0  0
    3.2915   -5.9363   -0.7006 H   0  0  0  0  0  0  0  0  0  0  0  0
    3.0523   -6.7854    0.8321 H   0  0  0  0  0  0  0  0  0  0  0  0
    7.9429   -4.7316    0.1506 H   0  0  0  0  0  0  0  0  0  0  0  0
    7.8486   -2.2288    1.7913 H   0  0  0  0  0  0  0  0  0  0  0  0
    9.2285   -3.3358    1.6494 H   0  0  0  0  0  0  0  0  0  0  0  0
    7.7994   -3.7937    2.4415 H   0  0  0  0  0  0  0  0  0  0  0  0
    9.8289   -2.1488    0.0086 H   0  0  0  0  0  0  0  0  0  0  0  0
   10.8707   -1.3949   -2.0634 H   0  0  0  0  0  0  0  0  0  0  0  0
    9.9142   -2.0273   -4.2310 H   0  0  0  0  0  0  0  0  0  0  0  0
    7.8779   -3.3928   -4.3133 H   0  0  0  0  0  0  0  0  0  0  0  0
    6.8186   -4.1445   -2.2461 H   0  0  0  0  0  0  0  0  0  0  0  0
    4.1644   -2.5156    5.6403 H   0  0  0  0  0  0  0  0  0  0  0  0
    5.2993   -2.1957    7.7960 H   0  0  0  0  0  0  0  0  0  0  0  0
    7.3979   -3.3814    8.2611 H   0  0  0  0  0  0  0  0  0  0  0  0
    8.3708   -4.8728    6.5732 H   0  0  0  0  0  0  0  0  0  0  0  0
    7.8320   -5.7789    1.0986 H   0  0  0  0  0  0  0  0  0  0  0  0
    8.9280   -7.3244    3.3446 H   0  0  0  0  0  0  0  0  0  0  0  0
    9.6751   -5.8693    2.6779 H   0  0  0  0  0  0  0  0  0  0  0  0
    9.5495   -7.3291    1.6915 H   0  0  0  0  0  0  0  0  0  0  0  0
    6.7050   -8.0899    2.5020 H   0  0  0  0  0  0  0  0  0  0  0  0
    7.3467   -8.0918    0.8552 H   0  0  0  0  0  0  0  0  0  0  0  0
    5.8936   -7.1935    1.2414 H   0  0  0  0  0  0  0  0  0  0  0  0
  1  2  2  0  0  0  0
  1 25  1  0  0  0  0
  2  3  1  0  0  0  0
  2 26  1  0  0  0  0
  3 18  1  0  0  0  0
  3  4  1  0  0  0  0
  4  8  1  0  0  0  0
  4  5  1  0  0  0  0
  5  7  1  0  0  0  0
  5  6  2  0  0  0  0
  7 29  1  0  0  0  0
  7 30  1  0  0  0  0
  7 31  1  0  0  0  0
  8  9  2  0  0  0  0
 10 11  1  0  0  0  0
 10 12  1  0  0  0  0
 10  8  1  0  0  0  0
 10 32  1  6  0  0  0
 11 33  1  0  0  0  0
 11 34  1  0  0  0  0
 11 35  1  0  0  0  0
 12 13  2  0  0  0  0
 12 17  1  0  0  0  0
 13 14  1  0  0  0  0
 13 36  1  0  0  0  0
 14 15  2  0  0  0  0
 14 37  1  0  0  0  0
 15 16  1  0  0  0  0
 15 38  1  0  0  0  0
 16 17  2  0  0  0  0
 16 39  1  0  0  0  0
 17 40  1  0  0  0  0
 18 20  1  0  0  0  0
 18 19  2  0  0  0  0
 20 21  1  0  0  0  0
 20 25  2  0  0  0  0
 21 22  2  0  0  0  0
 21 41  1  0  0  0  0
 22 23  1  0  0  0  0
 22 42  1  0  0  0  0
 23 24  2  0  0  0  0
 23 43  1  0  0  0  0
 24 25  1  0  0  0  0
 24 44  1  0  0  0  0
 26 28  1  0  0  0  0
 26 27  1  0  0  0  0
 26 45  1  0  0  0  0
 27 46  1  0  0  0  0
 27 47  1  0  0  0  0
 27 48  1  0  0  0  0
 28 49  1  0  0  0  0
 28 50  1  0  0  0  0
 28 51  1  0  0  0  0
M  END
$$$$
