omegacsd_HEHVOF
 OpenBabel05201902083D

 51 53  0  0  1  0  0  0  0  0999 V2000
    6.0740   -6.6045  -10.7648 N   0  0  0  0  0  0  0  0  0  0  0  0
    6.1030   -5.3351  -11.0251 C   0  0  0  0  0  0  0  0  0  0  0  0
    6.2883   -4.3878  -10.0418 N   0  0  0  0  0  0  0  0  0  0  0  0
    6.4604   -2.9968  -10.3449 N   0  0  0  0  0  0  0  0  0  0  0  0
    5.2082   -2.3737  -10.6815 C   0  0  0  0  0  0  0  0  0  0  0  0
    4.0439   -2.7293  -10.4714 O   0  0  0  0  0  0  0  0  0  0  0  0
    5.4671   -0.9890  -11.3685 C   0  0  0  0  0  0  0  0  0  0  0  0
    7.3898   -2.2116   -9.6538 C   0  0  0  0  0  0  0  0  0  0  0  0
    7.1379   -1.0631   -9.2771 O   0  0  0  0  0  0  0  0  0  0  0  0
    8.7984   -2.7909   -9.4435 C   0  0  2  0  0  0  0  0  0  0  0  0
    8.9238   -3.5186   -8.1314 C   0  0  0  0  0  0  0  0  0  0  0  0
    9.9395   -1.8458   -9.7985 C   0  0  0  0  0  0  0  0  0  0  0  0
   11.2633   -2.0963   -9.4415 C   0  0  0  0  0  0  0  0  0  0  0  0
   12.2943   -1.2575   -9.8415 C   0  0  0  0  0  0  0  0  0  0  0  0
   12.0200   -0.1508  -10.6138 C   0  0  0  0  0  0  0  0  0  0  0  0
   10.7202    0.1236  -10.9733 C   0  0  0  0  0  0  0  0  0  0  0  0
    9.6996   -0.7153  -10.5686 C   0  0  0  0  0  0  0  0  0  0  0  0
    6.3373   -4.7369   -8.6805 C   0  0  0  0  0  0  0  0  0  0  0  0
    6.2885   -3.9326   -7.7448 O   0  0  0  0  0  0  0  0  0  0  0  0
    6.4894   -6.1755   -8.3962 C   0  0  0  0  0  0  0  0  0  0  0  0
    6.8042   -6.6485   -7.1246 C   0  0  0  0  0  0  0  0  0  0  0  0
    6.9887   -8.0013   -6.9221 C   0  0  0  0  0  0  0  0  0  0  0  0
    6.8425   -8.8780   -7.9769 C   0  0  0  0  0  0  0  0  0  0  0  0
    6.5177   -8.4016   -9.2365 C   0  0  0  0  0  0  0  0  0  0  0  0
    6.3489   -7.0434   -9.4662 C   0  0  0  0  0  0  0  0  0  0  0  0
    5.8047   -4.8801  -12.4461 C   0  0  0  0  0  0  0  0  0  0  0  0
    6.5543   -5.7200  -13.4603 C   0  0  0  0  0  0  0  0  0  0  0  0
    4.3185   -4.9675  -12.7506 C   0  0  0  0  0  0  0  0  0  0  0  0
    6.5226   -0.7189  -11.4197 H   0  0  0  0  0  0  0  0  0  0  0  0
    4.9572   -0.2370  -10.7748 H   0  0  0  0  0  0  0  0  0  0  0  0
    5.0758   -0.9524  -12.3830 H   0  0  0  0  0  0  0  0  0  0  0  0
    8.9329   -3.5454  -10.2134 H   0  0  0  0  0  0  0  0  0  0  0  0
    8.7784   -2.8440   -7.2997 H   0  0  0  0  0  0  0  0  0  0  0  0
    9.8836   -4.0009   -8.0425 H   0  0  0  0  0  0  0  0  0  0  0  0
    8.1956   -4.2982   -8.0619 H   0  0  0  0  0  0  0  0  0  0  0  0
   11.5065   -2.9541   -8.8448 H   0  0  0  0  0  0  0  0  0  0  0  0
   13.3044   -1.4677   -9.5535 H   0  0  0  0  0  0  0  0  0  0  0  0
   12.8130    0.4939  -10.9324 H   0  0  0  0  0  0  0  0  0  0  0  0
   10.5001    0.9859  -11.5682 H   0  0  0  0  0  0  0  0  0  0  0  0
    8.6958   -0.4835  -10.8547 H   0  0  0  0  0  0  0  0  0  0  0  0
    6.9069   -5.9664   -6.3050 H   0  0  0  0  0  0  0  0  0  0  0  0
    7.2429   -8.3697   -5.9491 H   0  0  0  0  0  0  0  0  0  0  0  0
    6.9799   -9.9290   -7.8207 H   0  0  0  0  0  0  0  0  0  0  0  0
    6.3977   -9.0912  -10.0475 H   0  0  0  0  0  0  0  0  0  0  0  0
    6.1177   -3.8481  -12.5434 H   0  0  0  0  0  0  0  0  0  0  0  0
    6.2408   -6.7574  -13.3930 H   0  0  0  0  0  0  0  0  0  0  0  0
    7.6200   -5.6665  -13.2722 H   0  0  0  0  0  0  0  0  0  0  0  0
    6.3598   -5.3663  -14.4685 H   0  0  0  0  0  0  0  0  0  0  0  0
    3.9778   -5.9974  -12.6761 H   0  0  0  0  0  0  0  0  0  0  0  0
    4.1106   -4.6153  -13.7591 H   0  0  0  0  0  0  0  0  0  0  0  0
    3.7433   -4.3706  -12.0571 H   0  0  0  0  0  0  0  0  0  0  0  0
  1  2  2  0  0  0  0
  1 25  1  0  0  0  0
  2  3  1  0  0  0  0
  2 26  1  0  0  0  0
  3 18  1  0  0  0  0
  3  4  1  0  0  0  0
  4  8  1  0  0  0  0
  4  5  1  0  0  0  0
  5  7  1  0  0  0  0
  5  6  2  0  0  0  0
  7 29  1  0  0  0  0
  7 30  1  0  0  0  0
  7 31  1  0  0  0  0
  8  9  2  0  0  0  0
 10 11  1  0  0  0  0
 10 12  1  0  0  0  0
 10  8  1  0  0  0  0
 10 32  1  6  0  0  0
 11 33  1  0  0  0  0
 11 34  1  0  0  0  0
 11 35  1  0  0  0  0
 12 13  2  0  0  0  0
 12 17  1  0  0  0  0
 13 14  1  0  0  0  0
 13 36  1  0  0  0  0
 14 15  2  0  0  0  0
 14 37  1  0  0  0  0
 15 16  1  0  0  0  0
 15 38  1  0  0  0  0
 16 17  2  0  0  0  0
 16 39  1  0  0  0  0
 17 40  1  0  0  0  0
 18 20  1  0  0  0  0
 18 19  2  0  0  0  0
 20 21  1  0  0  0  0
 20 25  2  0  0  0  0
 21 22  2  0  0  0  0
 21 41  1  0  0  0  0
 22 23  1  0  0  0  0
 22 42  1  0  0  0  0
 23 24  2  0  0  0  0
 23 43  1  0  0  0  0
 24 25  1  0  0  0  0
 24 44  1  0  0  0  0
 26 28  1  0  0  0  0
 26 27  1  0  0  0  0
 26 45  1  0  0  0  0
 27 46  1  0  0  0  0
 27 47  1  0  0  0  0
 27 48  1  0  0  0  0
 28 49  1  0  0  0  0
 28 50  1  0  0  0  0
 28 51  1  0  0  0  0
M  END
$$$$
